/batch
/config,noeldb,1     ! force off writing results to database
*get,_wallstrt,active,,time,wall
! ANSYS input file written by Workbench version 2022 R2
! File used for geometry attach: C:\Users\Admin\Desktop\master thesis\ANSYS\bending_beam_self_study_files\dp0\SYS-3\DM\SYS-3.agdb
/title,bending_beam_self_study--Static Structural (E5)
! ****** Begin Custom Load Command Snippet ******
/COM, ACT Extensions:
/COM,     LSDYNA, 2022.2
/COM,     5f463412-bd3e-484b-87e7-cbc0a665e474, wbex
/COM,/COM,     ANSYSMotion, 2022.2
/COM,     20180725-3f81-49eb-9f31-41364844c769, wbex
/COM,
! ****** End   Custom Load Command Snippet ******
*DIM,_wb_ProjectScratch_dir,string,248
_wb_ProjectScratch_dir(1) = 'C:\Users\Admin\Desktop\master thesis\ANSYS\_ProjectScratch\Scr7E3E\'
*DIM,_wb_SolverFiles_dir,string,248
_wb_SolverFiles_dir(1) = 'C:\Users\Admin\Desktop\master thesis\ANSYS\bending_beam_self_study_files\dp0\SYS-3\MECH\'
*DIM,_wb_userfiles_dir,string,248
_wb_userfiles_dir(1) = 'C:\Users\Admin\Desktop\master thesis\ANSYS\bending_beam_self_study_files\user_files\'
/com,--- Data in consistent NMM units. See Solving Units in the help system for more information.
/units,MPA
/nopr
/wb,file,start              !  signify a WB generated input file
/prep7
! Turn off shape checking because checks already performed inside WB mesher.
! See help system for more information.
SHPP,OFF,,NOWARN
/nolist
etcon,set             ! allow ANSYS to choose best KEYOP's for 180x elements, resets any applicable keyopt to MAPDL defaults
/com,*********** Nodes for the whole assembly ***********
nblock,3,,19932
(1i9,3e20.9e3)
        1     3.000000119E+02    -2.079482658E+01    -1.418301459E+01
        2     3.000000119E+02    -2.493397143E+01    -1.831843995E+01
        3     3.000000119E+02    -1.554705758E+01    -1.563470244E+01
        4     3.000000119E+02    -1.930739205E+01    -2.271445803E+01
        5     3.100000028E+02    -2.079482779E+01    -1.418301475E+01
        6     3.100000017E+02    -2.493397184E+01    -1.831843993E+01
        7     3.100000033E+02    -1.554705882E+01    -1.563470254E+01
        8     3.100000018E+02    -1.930739245E+01    -2.271445794E+01
        9     3.000000119E+02    -2.216718519E+01    -8.862931198E+00
       10     3.000000119E+02    -2.853526535E+01    -1.223624216E+01
       11     3.100000032E+02    -2.216718721E+01    -8.862931680E+00
       12     3.100000017E+02    -2.853526640E+01    -1.223624249E+01
       13     3.000000119E+02    -1.481610822E+01    -7.509823823E+00
       14     3.100000037E+02    -1.481611070E+01    -7.509824560E+00
       15     3.000000119E+02    -3.016213619E+01     1.183870995E+01
       16     3.000000119E+02    -3.411600115E+01     7.669783032E+00
       17     3.000000119E+02    -2.671065439E+01     5.331776806E+00
       18     3.000000119E+02    -3.280670614E+01     1.984404109E+00
       19     3.100000012E+02    -3.016212718E+01     1.183873071E+01
       20     3.100000008E+02    -3.411599661E+01     7.669798350E+00
! ... 18101 like lines cut
/com,*********** Nodes for all Remote Points ***********
nblock,3
(1i9,3e20.9e3)
    18121     3.000000119E+02     1.109986051E-15    -2.774965127E-16
    18122     5.000000000E+02     0.000000000E+00     5.081112767E-16
    18123     3.000000119E+02     1.109986051E-15    -2.774965127E-16
    18124     5.000000000E+02     0.000000000E+00     5.081112767E-16
-1
/wb,elem,start            !  set before creation of elements
/com,*********** Elements for Body 1 "Solid" ***********
et,1,186
keyo,1,2,1          ! set full integration on SOLID186
eblock,19,solid,,1875
(19i9)
        1        1        1        1        0        0        0        0       20        0     1401     9800     9794     9795     9801     9897     9891     9892     9898
    17942    17914    17943    17927     9911    18105    10035    18113    18112    18103    18104    18114
        1        1        1        1        0        0        0        0       20        0     1402     9802     9804     9805     9803     9899     9901     9902     9900
    17940    17939    17941    17932     9930    18120    10054    18116    18115    18118    18119    18117
        1        1        1        1        0        0        0        0       20        0     1403     9804     9796     9797     9805     9901     9893     9894     9902
    17936    17919    17937    17939     9931    18108    10053    18120    18118    18106    18107    18119
        1        1        1        1        0        0        0        0       20        0     1404     9798     9802     9803     9799     9895     9899     9900     9896
    17930    17932    17934    17922     9929    18116    10015    18110    18109    18115    18117    18111
        1        1        1        1        0        0        0        0       20        0     1405     9792     9800     9801     9793     9889     9897     9898     9890
    17925    17927    17929    17907     9910    18113    10036    18101    18100    18112    18114    18102
        1        1        1        1        0        0        0        0       20        0     1406     9790     9798     9799     9791     9887     9895     9896     9888
    17920    17922    17924    17902     9928    18110    10016    18098    18097    18109    18111    18099
        1        1        1        1        0        0        0        0       20        0     1407     9796     9775     9776     9797     9893     9872     9873     9894
    17916    17859    17917    17919     9932    18071    10052    18108    18106    18069    18070    18107
        1        1        1        1        0        0        0        0       20        0     1408     9794     9786     9787     9795     9891     9883     9884     9892
    17911    17894    17912    17914     9912    18093    10034    18105    18103    18091    18092    18104
        1        1        1        1        0        0        0        0       20        0     1409     9788     9792     9793     9789     9885     9889     9890     9886
    17905    17907    17909    17897     9909    18101    10037    18095    18094    18100    18102    18096
        1        1        1        1        0        0        0        0       20        0     1410     9777     9790     9791     9778     9874     9887     9888     9875
    17900    17902    17904    17862     9927    18098    10017    18073    18072    18097    18099    18074
! ... 3731 like lines cut
!Material Id = {DA67E2CC-C969-47AA-91FF-14FFAA08355B}
/com,*********** Elements for Body 2 "Solid" ***********
et,2,186
keyo,2,2,1          ! set full integration on SOLID186
eblock,19,solid,,1400
(19i9)
        2        2        2        2        0        0        0        0       20        0        1     1674     1700     1656     1658     1759     1785     1741     1743
     6508     6507     6380     6428     1805     6719     6619     6666     6665     6718     6613     6618
        2        2        2        2        0        0        0        0       20        0        2     1700     1699     1657     1656     1785     1784     1742     1741
     6506     6504     6375     6507     1804     6717     6614     6719     6718     6716     6615     6613
        2        2        2        2        0        0        0        0       20        0        3     1699     1698     1672     1657     1784     1783     1757     1742
     6503     6501     6424     6504     1803     6715     6663     6717     6716     6714     6661     6615
        2        2        2        2        0        0        0        0       20        0        4     1698     1697     1671     1672     1783     1782     1756     1757
     6500     6498     6423     6501     1802     6713     6662     6715     6714     6712     6658     6661
        2        2        2        2        0        0        0        0       20        0        5     1697     1696     1670     1671     1782     1781     1755     1756
     6497     6495     6420     6498     1801     6711     6659     6713     6712     6710     6655     6658
        2        2        2        2        0        0        0        0       20        0        6     1696     1695     1669     1670     1781     1780     1754     1755
     6494     6492     6417     6495     1800     6709     6656     6711     6710     6708     6652     6655
        2        2        2        2        0        0        0        0       20        0        7     1695     1694     1668     1669     1780     1779     1753     1754
     6491     6489     6414     6492     1799     6707     6653     6709     6708     6706     6649     6652
        2        2        2        2        0        0        0        0       20        0        8     1694     1693     1633     1668     1779     1778     1718     1753
     6488     6486     6411     6489     1798     6705     6650     6707     6706     6704     6546     6649
        2        2        2        2        0        0        0        0       20        0        9     1693     1692     1629     1633     1778     1777     1714     1718
     6485     6483     6308     6486     1797     6703     6547     6705     6704     6702     6538     6546
        2        2        2        2        0        0        0        0       20        0       10     1692     1691     1630     1629     1777     1776     1715     1714
     6482     6480     6300     6483     1796     6701     6539     6703     6702     6700     6540     6538
! ... 2781 like lines cut
!Material Id = {32CD610B-4AEF-4903-A172-4D5522836EF9}
/wb,elem,end               !  done creating elements
/com,*********** Send User Defined Coordinate System(s) ***********
local,12,0,300.000011920929,1.10998605080352e-015,-2.77496512700879e-016,0.,0.,0.
local,13,0,500.,0.,5.08111276707646e-016,0.,0.,0.
local,14,0,160.727252370821,7.84201143147508e-016,1.57597910893412e-015,0.,0.,90.
local,15,0,400.000005960425,1.51727681473364e-015,-2.38177174405863e-016,0.,0.,90.
csys,0
toffst,273.15,  ! Temperature offset from absolute zero
/com,*********** Set Reference Temperature ***********
tref,22.
/wb,mat,start              !  starting to send materials
/com,*********** Send Materials ***********
MP,EX,1,70000,	! tonne s^-2 mm^-1
MP,NUXY,1,0.33,
MP,UVID,1,92b9668a-0c0d-489c-bf8b-177f5621ad2d

MP,EX,2,210000,	! tonne s^-2 mm^-1
MP,NUXY,2,0.3,
MP,UVID,2,75ec716d-1076-4124-bb99-ec7ae7028403

/wb,mat,end                !  done sending materials
!************************* Model Summary ********************
!Solid,	hollow,	matid,	1
!Solid,	steel,	matid,	2
!************************* End Model Summary ********************
! get the diagonal of the bounding box. Needed later for other things
*get,_xmin,node,,mnloc,x
*get,_ymin,node,,mnloc,y
*get,_zmin,node,,mnloc,z
*get,_xmax,node,,mxloc,x
*get,_ymax,node,,mxloc,y
*get,_zmax,node,,mxloc,z
_ASMDIAG=(_xmax-_xmin)*(_xmax-_xmin)+(_ymax-_ymin)*(_ymax-_ymin)+(_zmax-_zmin)*(_zmax-_zmin)
_ASMDIAG=SQRT(_ASMDIAG)
/wb,contact,start          !  starting to send contact
/com,*********** Create Contact "Contact Region" ***********
/com,            Real Constant Set For Above Contact Is 4 & 3 
*set,tid,4
*set,cid,3
r,tid
r,cid
et,tid,170
et,cid,174
eblock,10,,,103
(15i9)
     6552        4        4        4        0     6906     7044     7065     6908    10769    10804    10813    10478
     6553        4        4        4        0     6966     6897     6844     6840    10598    10457    10329    10596
     6554        4        4        4        0     6964     6966     6840     6841    10594    10596    10321    10592
     6555        4        4        4        0     6962     6964     6841     6894    10590    10592    10453    10588
     6556        4        4        4        0     6960     6962     6894     6891    10586    10588    10448    10584
     6557        4        4        4        0     6958     6960     6891     6890    10582    10584    10445    10580
     6558        4        4        4        0     6956     6958     6890     6888    10578    10580    10440    10576
     6559        4        4        4        0     6954     6956     6888     6886    10574    10576    10435    10572
     6560        4        4        4        0     6952     6954     6886     6884    10570    10572    10430    10568
     6561        4        4        4        0     6950     6952     6884     6740    10566    10568    10425    10564
     6562        4        4        4        0     6948     6950     6740     6732    10562    10564    10087    10560
     6563        4        4        4        0     6946     6948     6732     6733    10558    10560    10075    10556
     6564        4        4        4        0     6944     6946     6733     6735    10554    10556    10078    10552
     6565        4        4        4        0     6942     6944     6735     6882    10550    10552    10423    10548
     6566        4        4        4        0     6940     6942     6882     6879    10546    10548    10418    10544
     6567        4        4        4        0     6938     6940     6879     6878    10542    10544    10415    10540
     6568        4        4        4        0     6936     6938     6878     6876    10538    10540    10410    10536
     6569        4        4        4        0     6934     6936     6876     6874    10534    10536    10405    10532
     6570        4        4        4        0     6932     6934     6874     6872    10530    10532    10400    10528
     6571        4        4        4        0     6930     6932     6872     6869    10526    10528    10395    10524
! ... 84 like lines cut
eblock,10,,,103
(15i9)
     6655        3        3        3        0     6906     7044     7065     6908    10769    10804    10813    10478
     6656        3        3        3        0     6966     6897     6844     6840    10598    10457    10329    10596
     6657        3        3        3        0     6964     6966     6840     6841    10594    10596    10321    10592
     6658        3        3        3        0     6962     6964     6841     6894    10590    10592    10453    10588
     6659        3        3        3        0     6960     6962     6894     6891    10586    10588    10448    10584
     6660        3        3        3        0     6958     6960     6891     6890    10582    10584    10445    10580
     6661        3        3        3        0     6956     6958     6890     6888    10578    10580    10440    10576
     6662        3        3        3        0     6954     6956     6888     6886    10574    10576    10435    10572
     6663        3        3        3        0     6952     6954     6886     6884    10570    10572    10430    10568
     6664        3        3        3        0     6950     6952     6884     6740    10566    10568    10425    10564
     6665        3        3        3        0     6948     6950     6740     6732    10562    10564    10087    10560
     6666        3        3        3        0     6946     6948     6732     6733    10558    10560    10075    10556
     6667        3        3        3        0     6944     6946     6733     6735    10554    10556    10078    10552
     6668        3        3        3        0     6942     6944     6735     6882    10550    10552    10423    10548
     6669        3        3        3        0     6940     6942     6882     6879    10546    10548    10418    10544
     6670        3        3        3        0     6938     6940     6879     6878    10542    10544    10415    10540
     6671        3        3        3        0     6936     6938     6878     6876    10538    10540    10410    10536
     6672        3        3        3        0     6934     6936     6876     6874    10534    10536    10405    10532
     6673        3        3        3        0     6932     6934     6874     6872    10530    10532    10400    10528
     6674        3        3        3        0     6930     6932     6872     6869    10526    10528    10395    10524
! ... 84 like lines cut
eblock,10,,,70
(15i9)
     6758        3        4        3        0      169      116       85       81     1833     2097     2018     2204
     6759        3        4        3        0      167      169       81       82     1832     2204     2010     2200
     6760        3        4        3        0      165      167       82      112     1831     2200     2093     2196
     6761        3        4        3        0      163      165      112      111     1830     2196     2090     2192
     6762        3        4        3        0      161      163      111      109     1829     2192     2085     2188
     6763        3        4        3        0      159      161      109      107     1828     2188     2080     2184
     6764        3        4        3        0      157      159      107      105     1827     2184     2075     2180
     6765        3        4        3        0      155      157      105       35     1826     2180     2070     2176
     6766        3        4        3        0      153      155       35       27     1825     2176     1899     2172
     6767        3        4        3        0      151      153       27       28     1824     2172     1887     2168
     6768        3        4        3        0      149      151       28       30     1823     2168     1890     2164
     6769        3        4        3        0      147      149       30      103     1822     2164     2068     2160
     6770        3        4        3        0      145      147      103      100     1821     2160     2063     2156
     6771        3        4        3        0      143      145      100       99     1820     2156     2060     2152
     6772        3        4        3        0      141      143       99       97     1819     2152     2055     2148
     6773        3        4        3        0      139      141       97       95     1818     2148     2050     2144
     6774        3        4        3        0      137      139       95       23     1817     2144     2045     2140
     6775        3        4        3        0      135      137       23       15     1816     2140     1879     2136
     6776        3        4        3        0      133      135       15       16     1815     2136     1867     2132
     6777        3        4        3        0      131      133       16       18     1814     2132     1870     2128
! ... 51 like lines cut
eblock,10,,,70
(15i9)
     6828        4        3        4        0      169      116       85       81     1833     2097     2018     2204
     6829        4        3        4        0      167      169       81       82     1832     2204     2010     2200
     6830        4        3        4        0      165      167       82      112     1831     2200     2093     2196
     6831        4        3        4        0      163      165      112      111     1830     2196     2090     2192
     6832        4        3        4        0      161      163      111      109     1829     2192     2085     2188
     6833        4        3        4        0      159      161      109      107     1828     2188     2080     2184
     6834        4        3        4        0      157      159      107      105     1827     2184     2075     2180
     6835        4        3        4        0      155      157      105       35     1826     2180     2070     2176
     6836        4        3        4        0      153      155       35       27     1825     2176     1899     2172
     6837        4        3        4        0      151      153       27       28     1824     2172     1887     2168
     6838        4        3        4        0      149      151       28       30     1823     2168     1890     2164
     6839        4        3        4        0      147      149       30      103     1822     2164     2068     2160
     6840        4        3        4        0      145      147      103      100     1821     2160     2063     2156
     6841        4        3        4        0      143      145      100       99     1820     2156     2060     2152
     6842        4        3        4        0      141      143       99       97     1819     2152     2055     2148
     6843        4        3        4        0      139      141       97       95     1818     2148     2050     2144
     6844        4        3        4        0      137      139       95       23     1817     2144     2045     2140
     6845        4        3        4        0      135      137       23       15     1816     2140     1879     2136
     6846        4        3        4        0      133      135       15       16     1815     2136     1867     2132
     6847        4        3        4        0      131      133       16       18     1814     2132     1870     2128
! ... 51 like lines cut
keyo,cid,8,2               ! auto create asymmetric contact (from Program Controlled setting)
keyo,cid,10,0              ! adjust contact stiffness each NR iteration (from Program Controlled setting)
keyo,cid,12,5              ! bonded always
keyo,cid,18,1              ! small sliding turned on by application
keyo,cid,2,0               ! augmented Lagrange (from Program Controlled setting)
keyo,cid,4,0               ! on Gauss point (from Program Controlled setting)
keyo,cid,9,1               ! ignore initial gaps/penetration
keyo,cid,7,0               ! No Prediction
rmod,tid,3,10.      ! FKN
rmod,tid,5,0.       ! ICONT
rmod,tid,6,0.       ! PINB
rmod,tid,10,0.      ! CNOF
rmod,tid,12,0.      ! FKT
rmod,tid,36,95      ! WB DSID
rmod,cid,3,10.      ! FKN
rmod,cid,5,0.       ! ICONT
rmod,cid,6,0.       ! PINB
rmod,cid,10,0.      ! CNOF
rmod,cid,12,0.      ! FKT
rmod,cid,36,95      ! WB DSID
nsel,all
esel,all
/wb,contact,end            !  done creating contacts
/golist
/wb,load,start             !  starting to send loads
/com,*********** Fixed Supports ***********
CMBLOCK,_FIXEDSU,NODE,      253
(8i10)
      9806      9807      9808      9809      9810      9811      9812      9813
      9814      9815      9816      9817      9818      9819      9820      9821
      9822      9823      9824      9825      9826      9827      9828      9829
      9830      9831      9832      9833      9834      9835      9836      9837
      9838      9839      9840      9841      9842      9843      9844      9845
      9846      9847      9848      9849      9850      9851      9852      9853
      9854      9855      9856      9857      9858      9859      9860      9861
      9862      9863      9864      9865      9866      9867      9868      9869
      9870      9871      9872      9873      9874      9875      9876      9877
      9878      9879      9880      9881      9882      9883      9884      9885
      9886      9887      9888      9889      9890      9891      9892      9893
      9894      9895      9896      9897      9898      9899      9900      9901
      9902      9903      9904      9905      9906      9907      9908      9909
      9910      9911      9912      9913      9914      9915      9916      9917
      9918      9919      9920      9921      9922      9923      9924      9925
      9926      9927      9928      9929      9930      9931      9932      9933
      9934      9935      9936      9937      9938     10015     10016     10017
     10018     10019     10020     10021     10022     10023     10024     10025
     10026     10027     10028     10029     10030     10031     10032     10033
     10034     10035     10036     10037     10038     10039     10040     10041
! ... 12 like lines cut
cmsel,s,_FIXEDSU
d,all,all
nsel,all
/com,*********** Create Remote Point "Remote Point_AB" ***********
*set,tid,6
*set,cid,5
et,cid,174
et,tid,170
keyo,tid,2,1               ! Don't fix the pilot node
keyo,tid,4,111111
keyo,cid,12,5              ! Bonded Contact 
keyo,cid,4,1               ! Deformable RBE3 style load
keyo,cid,2,2               ! MPC style contact
eblock,10,,,164
(15i9)
     6898        5        5        5        0     6916     6914     7084     7078    10494    10846     9995    10835
     6899        5        5        5        0     6954     6952     7086     7088    10570    10850    10014    10855
     6900        5        5        5        0     6956     6954     7088     7080    10574    10855    10013    10839
     6901        5        5        5        0     6952     6950     7082     7086    10566    10842     9939    10850
     6902        5        5        5        0     6914     6912     7076     7084    10490    10830     9996    10846
     6903        5        5        5        0     6950     6948     7074     7082    10562    10826     9940    10842
     6904        5        5        5        0     6958     6956     7080     7056    10578    10839    10012    10783
     6905        5        5        5        0     6918     6916     7078     7070    10498    10835     9994    10819
     6906        5        5        5        0     6912     6910     7072     7076    10486    10822     9997    10830
     6907        5        5        5        0     6948     6946     7058     7074    10558    10786     9941    10826
     6908        5        5        5        0     6910     6908     7068     7072    10482    10809     9998    10822
     6909        5        5        5        0     6920     6918     7070     7038    10502    10819     9993    10746
     6910        5        5        5        0     6900     6896     7060     7016    10462    10800    10816    10708
     6911        5        5        5        0     7017     7016     7060     7061    10700    10816    10793    10004
     6912        5        5        5        0     6906     7044     7065     6908    10769    10804    10813    10478
     6913        5        5        5        0     7068     6908     7065     7064    10809    10813    10806     9999
     6914        5        5        5        0     7045     7064     7065     7044    10000    10806    10804    10758
     6915        5        5        5        0     6896     6897     7052     7060    10455    10780    10798    10800
     6916        5        5        5        0     7061     7060     7052     7053    10793    10798    10773    10005
     6917        5        5        5        0     6904     6902     7014     7046    10470    10706    10791    10771
! ... 145 like lines cut
*set,_npilot,18123
_npilot167=_npilot
type,tid
mat ,cid
real,cid
tshape,pilo
en,7062,_npilot
tshape
/com,*********** Create Remote Point "Remote Point" ***********
*set,tid,8
*set,cid,7
et,cid,174
et,tid,170
keyo,tid,2,1               ! Don't fix the pilot node
keyo,tid,4,111111
keyo,cid,12,5              ! Bonded Contact 
keyo,cid,4,1               ! Deformable RBE3 style load
keyo,cid,2,2               ! MPC style contact
eblock,10,,,70
(15i9)
     7063        7        7        7        0     1759     1785     1741     1743     1805     6719     6619     6666
     7064        7        7        7        0     1785     1784     1742     1741     1804     6717     6614     6719
     7065        7        7        7        0     1784     1783     1757     1742     1803     6715     6663     6717
     7066        7        7        7        0     1783     1782     1756     1757     1802     6713     6662     6715
     7067        7        7        7        0     1782     1781     1755     1756     1801     6711     6659     6713
     7068        7        7        7        0     1781     1780     1754     1755     1800     6709     6656     6711
     7069        7        7        7        0     1780     1779     1753     1754     1799     6707     6653     6709
     7070        7        7        7        0     1779     1778     1718     1753     1798     6705     6650     6707
     7071        7        7        7        0     1778     1777     1714     1718     1797     6703     6547     6705
     7072        7        7        7        0     1777     1776     1715     1714     1796     6701     6539     6703
     7073        7        7        7        0     1776     1775     1717     1715     1795     6699     6541     6701
     7074        7        7        7        0     1775     1774     1752     1717     1794     6697     6648     6699
     7075        7        7        7        0     1774     1773     1751     1752     1793     6695     6646     6697
     7076        7        7        7        0     1773     1772     1750     1751     1792     6693     6644     6695
     7077        7        7        7        0     1772     1771     1749     1750     1791     6691     6641     6693
     7078        7        7        7        0     1771     1770     1748     1749     1790     6689     6638     6691
     7079        7        7        7        0     1770     1769     1712     1748     1789     6687     6635     6689
     7080        7        7        7        0     1769     1768     1708     1712     1788     6685     6534     6687
     7081        7        7        7        0     1768     1767     1709     1708     1787     6683     6526     6685
     7082        7        7        7        0     1767     1766     1711     1709     1786     6681     6528     6683
! ... 51 like lines cut
*set,_npilot,18124
_npilot169=_npilot
type,tid
mat ,cid
real,cid
tshape,pilo
en,7133,_npilot
tshape
/com,*********** Create Remote Point "Internal Remote Point" ***********
! -------- Remote Point Used by "Remote Force" --------
*set,tid,10
*set,cid,9
et,cid,174
et,tid,170
keyo,tid,2,1               ! Don't fix the pilot node
keyo,tid,4,111111
keyo,cid,12,5              ! Bonded Contact 
keyo,cid,4,1               ! Deformable RBE3 style load
keyo,cid,2,2               ! MPC style contact
eblock,10,,,164
(15i9)
     7134        9        9        9        0     6916     6914     7084     7078    10494    10846     9995    10835
     7135        9        9        9        0     6954     6952     7086     7088    10570    10850    10014    10855
     7136        9        9        9        0     6956     6954     7088     7080    10574    10855    10013    10839
     7137        9        9        9        0     6952     6950     7082     7086    10566    10842     9939    10850
     7138        9        9        9        0     6914     6912     7076     7084    10490    10830     9996    10846
     7139        9        9        9        0     6950     6948     7074     7082    10562    10826     9940    10842
     7140        9        9        9        0     6958     6956     7080     7056    10578    10839    10012    10783
     7141        9        9        9        0     6918     6916     7078     7070    10498    10835     9994    10819
     7142        9        9        9        0     6912     6910     7072     7076    10486    10822     9997    10830
     7143        9        9        9        0     6948     6946     7058     7074    10558    10786     9941    10826
     7144        9        9        9        0     6910     6908     7068     7072    10482    10809     9998    10822
     7145        9        9        9        0     6920     6918     7070     7038    10502    10819     9993    10746
     7146        9        9        9        0     6900     6896     7060     7016    10462    10800    10816    10708
     7147        9        9        9        0     7017     7016     7060     7061    10700    10816    10793    10004
     7148        9        9        9        0     6906     7044     7065     6908    10769    10804    10813    10478
     7149        9        9        9        0     7068     6908     7065     7064    10809    10813    10806     9999
     7150        9        9        9        0     7045     7064     7065     7044    10000    10806    10804    10758
     7151        9        9        9        0     6896     6897     7052     7060    10455    10780    10798    10800
     7152        9        9        9        0     7061     7060     7052     7053    10793    10798    10773    10005
     7153        9        9        9        0     6904     6902     7014     7046    10470    10706    10791    10771
! ... 145 like lines cut
*set,_npilot,18121
_npilot75=_npilot
type,tid
mat ,cid
real,cid
tshape,pilo
en,7298,_npilot
tshape
/com,*********** Create Remote Point "Internal Remote Point 2" ***********
! -------- Remote Point Used by "Remote Force 2" --------
*set,tid,12
*set,cid,11
et,cid,174
et,tid,170
keyo,tid,2,1               ! Don't fix the pilot node
keyo,tid,4,111111
keyo,cid,12,5              ! Bonded Contact 
keyo,cid,4,1               ! Deformable RBE3 style load
keyo,cid,2,2               ! MPC style contact
eblock,10,,,70
(15i9)
     7299       11       11       11        0     1759     1785     1741     1743     1805     6719     6619     6666
     7300       11       11       11        0     1785     1784     1742     1741     1804     6717     6614     6719
     7301       11       11       11        0     1784     1783     1757     1742     1803     6715     6663     6717
     7302       11       11       11        0     1783     1782     1756     1757     1802     6713     6662     6715
     7303       11       11       11        0     1782     1781     1755     1756     1801     6711     6659     6713
     7304       11       11       11        0     1781     1780     1754     1755     1800     6709     6656     6711
     7305       11       11       11        0     1780     1779     1753     1754     1799     6707     6653     6709
     7306       11       11       11        0     1779     1778     1718     1753     1798     6705     6650     6707
     7307       11       11       11        0     1778     1777     1714     1718     1797     6703     6547     6705
     7308       11       11       11        0     1777     1776     1715     1714     1796     6701     6539     6703
     7309       11       11       11        0     1776     1775     1717     1715     1795     6699     6541     6701
     7310       11       11       11        0     1775     1774     1752     1717     1794     6697     6648     6699
     7311       11       11       11        0     1774     1773     1751     1752     1793     6695     6646     6697
     7312       11       11       11        0     1773     1772     1750     1751     1792     6693     6644     6695
     7313       11       11       11        0     1772     1771     1749     1750     1791     6691     6641     6693
     7314       11       11       11        0     1771     1770     1748     1749     1790     6689     6638     6691
     7315       11       11       11        0     1770     1769     1712     1748     1789     6687     6635     6689
     7316       11       11       11        0     1769     1768     1708     1712     1788     6685     6534     6687
     7317       11       11       11        0     1768     1767     1709     1708     1787     6683     6526     6685
     7318       11       11       11        0     1767     1766     1711     1709     1786     6681     6528     6683
! ... 51 like lines cut
*set,_npilot,18122
_npilot78=_npilot
type,tid
mat ,cid
real,cid
tshape,pilo
en,7369,_npilot
tshape
/com,*********** Construct Remote Force ***********
/com,*********** Construct Remote Force ***********
/gst,on,on
fini
*get,_numnode,node,0,count
*get,_numelem,elem,0,count
*get, _MAXELEMNUM, elem, 0, NUM, MAX
*get, _MAXNODENUM, node, 0, NUM, MAX
*get, _MAXELEMTYPE, etyp, 0, NUM, MAX
*get, _MAXREALCONST, rcon, 0, NUM, MAX
/go
/wb,load,end               !  done creating loads
/com,--- Number of total nodes = %_numnode%
/com,--- Number of contact elements = 814
/com,--- Number of spring elements = 0
/com,--- Number of bearing elements = 0
/com,--- Number of solid elements = 3275
/com,--- Number of condensed parts = 0
/com,--- Number of total elements = %_numelem%
*get,_wallbsol,active,,time,wall
/com,****************************************************************************
/com,*************************    SOLUTION       ********************************
/com,****************************************************************************
/solu
antype,0                   ! static analysis
_thickRatio=  1     ! Ratio of thick parts in the model
eqsl,pcg,1e-8,,,,,,1
cntr,print,1               ! print out contact info and also make no initial contact an error
dmpoption,emat,no             ! Don't combine emat file for DANSYS
dmpoption,esav,no             ! Don't combine esav file for DANSYS
nldiag,cont,iter           ! print out contact info each equilibrium iteration
rescontrol,,none                 ! Do not keep any restart files
/com,****************************************************
/com,******************* SOLVE FOR LS 1 OF 1 ****************
nsel,s,node,,18121
f,all,fx,200000.
f,all,fy,0.
f,all,fz,0.
nsel,s,node,,18122
f,all,fx,100000.
f,all,fy,0.
f,all,fz,0.
nsel,all
/nopr
/gopr
nsub,1,1,1
time,1.
outres,erase
outres,all,none
outres,nsol,all,
outres,rsol,all
outres,eangl,all
outres,etmp,all
outres,veng,all
outres,strs,all,
outres,epel,all,
outres,eppl,all,
outres,cont,all,
! *********** WB SOLVE COMMAND ***********
! check interactive state
*get,ANSINTER_,active,,int
*if,ANSINTER_,ne,0,then
/eof
*endif
solve
/com *************** Write FE CONNECTORS ********* 
CEWRITE,file,ce,,INTE
/com,****************************************************
/com,*************** FINISHED SOLVE FOR LS 1 *************
*get,_wallasol,active,,time,wall
/nopr
*get,_numnode,node,0,count
*get,_numelem,elem,0,count
*get, _MAXELEMNUM, elem, 0, NUM, MAX
*get, _MAXNODENUM, node, 0, NUM, MAX,,,INTERNAL
*get, _MAXELEMTYPE, etyp, 0, NUM, MAX
*get, _MAXREALCONST, rcon, 0, NUM, MAX
*get,_NSOLTHREADS,active,0,ntfs
*get,_NSOLPROCESSES,active,0,npfs
/gopr
*get,_PCGITER,active,,solu,cgiter
/post1
xmlo,ENCODING,ISO-8859-1
xmlo,parm
/xml,parm,xml
fini
/gopr
*get,_walldone,active,,time,wall
_preptime=(_wallbsol-_wallstrt)*3600
_solvtime=(_wallasol-_wallbsol)*3600
_posttime=(_walldone-_wallasol)*3600
_totaltim=(_walldone-_wallstrt)*3600
*get,_dlbratio,active,0,solu,dlbr
*get,_combtime,active,0,solu,comb
*get,_ssmode,active,0,solu,ssmm
*get,_ndofs,active,0,solu,ndof
*get,_sol_end_time,active,0,set,time
*if,_sol_end_time,eq,1.000000,then
/fclean				!clean distributed files
*endif
/com,--- Total number of nodes = %_numnode%
/com,--- Total number of elements = %_numelem%
/com,--- Element load balance ratio = %_dlbratio%
/com,--- Time to combine distributed files = %_combtime%
/com,--- Sparse memory mode = %_ssmode%
/com,--- Number of DOF = %_ndofs%
/wb,file,end               ! done with WB generated input
