/batch
/config,noeldb,1     ! force off writing results to database
*get,_wallstrt,active,,time,wall
! ANSYS input file written by Workbench version 2022 R2
! File used for geometry attach: C:\Users\Admin\PycharmProjects\Github\thesis_files\master thesisio\ansys\new_thesis_simply_supported_beam_files\dp0\SYS\DM\SYS.agdb
/title,new_thesis_simply_supported_beam--Static Structural (A5)
! ****** Begin Custom Load Command Snippet ******
/COM, ACT Extensions:
/COM,     LSDYNA, 2022.2
/COM,     5f463412-bd3e-484b-87e7-cbc0a665e474, wbex
/COM,/COM,     ANSYSMotion, 2022.2
/COM,     20180725-3f81-49eb-9f31-41364844c769, wbex
/COM,
! ****** End   Custom Load Command Snippet ******
*DIM,_wb_ProjectScratch_dir,string,248
_wb_ProjectScratch_dir(1) = 'C:\Users\Admin\PycharmProjects\Github\thesis_files\master thesisio\ansys\_ProjectScratch\Scr82F4\'
*DIM,_wb_SolverFiles_dir,string,248
_wb_SolverFiles_dir(1) = 'C:\Users\Admin\PycharmProjects\Github\thesis_files\master thesisio\ansys\new_thesis_simply_supported_beam_files\dp0\SYS\MECH\'
*DIM,_wb_userfiles_dir,string,248
_wb_userfiles_dir(1) = 'C:\Users\Admin\PycharmProjects\Github\thesis_files\master thesisio\ansys\new_thesis_simply_supported_beam_files\user_files\'
/com,--- Data in consistent NMM units. See Solving Units in the help system for more information.
/units,MPA
/nopr
/wb,file,start              !  signify a WB generated input file
/prep7
! Turn off shape checking because checks already performed inside WB mesher.
! See help system for more information.
SHPP,OFF,,NOWARN
/nolist
etcon,set             ! allow ANSYS to choose best KEYOP's for 180x elements, resets any applicable keyopt to MAPDL defaults
/com,*********** Nodes for the whole assembly ***********
nblock,3,,9971
(1i9,3e20.9e3)
        1     9.900000000E+02    -1.000000000E+01    -1.000000000E+01
        2     9.900000000E+02    -1.000000000E+01     0.000000000E+00
        3     9.900000000E+02    -1.000000000E+01     1.000000000E+01
        4     9.800000000E+02    -1.000000000E+01    -1.000000000E+01
        5     9.800000000E+02    -1.000000000E+01     0.000000000E+00
        6     9.800000000E+02    -1.000000000E+01     1.000000000E+01
        7     9.700000000E+02    -1.000000000E+01    -1.000000000E+01
        8     9.700000000E+02    -1.000000000E+01     0.000000000E+00
        9     9.700000000E+02    -1.000000000E+01     1.000000000E+01
       10     9.600000000E+02    -1.000000000E+01    -1.000000000E+01
       11     9.600000000E+02    -1.000000000E+01     0.000000000E+00
       12     9.600000000E+02    -1.000000000E+01     1.000000000E+01
       13     9.500000000E+02    -1.000000000E+01    -1.000000000E+01
       14     9.500000000E+02    -1.000000000E+01     0.000000000E+00
       15     9.500000000E+02    -1.000000000E+01     1.000000000E+01
       16     9.400000000E+02    -1.000000000E+01    -1.000000000E+01
       17     9.400000000E+02    -1.000000000E+01     0.000000000E+00
       18     9.400000000E+02    -1.000000000E+01     1.000000000E+01
       19     9.300000000E+02    -1.000000000E+01    -1.000000000E+01
       20     9.300000000E+02    -1.000000000E+01     0.000000000E+00
! ... 9046 like lines cut
/wb,elem,start            !  set before creation of elements
/com,*********** Elements for Body 1 "Solid" ***********
et,1,186
keyo,1,2,1          ! set full integration on SOLID186
eblock,19,solid,,1600
(19i9)
        1        1        1        1        0        0        0        0       20        0        1        1     2510     2499     2392     1188     2511     2498     2395
     2531     9028     8914     2530     6497     9026     8919     6496     2529     9046     9025     8913
        1        1        1        1        0        0        0        0       20        0        2        1     2392     2499     2510        2     2393     2500     2509
     2530     8914     9028     2531     2535     8916     9030     2536     2526     8912     9027     9045
        1        1        1        1        0        0        0        0       20        0        3        2     2393     2500     2509        3     2394     2501     2508
     2535     8916     9030     2536     2540     8917     9031     2541     2532     8915     9029     9044
        1        1        1        1        0        0        0        0       20        0        4        3     2394     2501     2508     1189     1591     1592     1489
     2540     8917     9031     2541     6501     7406     7202     6500     2539     7407     7408     7203
        1        1        1        1        0        0        0        0       20        0        5        1      298     2507     2510     1188     1089     2512     2511
     2528     3820     9042     2531     6297     6298     9047     6497     2529     3819     9043     9046
        1        1        1        1        0        0        0        0       20        0        6        1     2510     2507      298        2     2509     2506      299
     2531     9042     3820     2528     2536     9041     3824     2534     2526     9045     9040     3816
        1        1        1        1        0        0        0        0       20        0        7        2     2509     2506      299        3     2508     2505      300
     2536     9041     3824     2534     2541     9039     3828     2538     2532     9044     9038     3821
        1        1        1        1        0        0        0        0       20        0        8        3     2508     2505      300     1189     1489     1490     1288
     2541     9039     3828     2538     6500     7201     6798     6499     2539     7203     7205     3827
        1        1        1        1        0        0        0        0       20        0        9      298      595     2504     2507     1089      990     2513     2512
     3818     4813     9036     3820     6097     6099     9048     6298     3819     4811     9037     9043
        1        1        1        1        0        0        0        0       20        0       10      298     2507     2504      595      299     2506     2503      596
     3820     9036     4813     3818     3824     9035     4817     3823     3816     9040     9034     4809
! ... 3181 like lines cut
!Material Id = {B40A4649-0363-46AE-8C78-F52A88574974}
/wb,elem,end               !  done creating elements
/com,*********** Send User Defined Coordinate System(s) ***********
local,12,0,0.,20.,0.,0.,0.,0.
local,13,0,0.,-20.,0.,0.,0.,0.
csys,0
toffst,273.15,  ! Temperature offset from absolute zero
/com,*********** Set Reference Temperature ***********
tref,22.
/wb,mat,start              !  starting to send materials
/com,*********** Send Materials ***********
MP,EX,1,210000,	! tonne s^-2 mm^-1
MP,NUXY,1,0.3,
MP,UVID,1,5baf4e9d-e576-461d-98da-9df16e7882c6

/wb,mat,end                !  done sending materials
!************************* Model Summary ********************
!Solid,	structural steel new,	matid,	1
!************************* End Model Summary ********************
! get the diagonal of the bounding box. Needed later for other things
*get,_xmin,node,,mnloc,x
*get,_ymin,node,,mnloc,y
*get,_zmin,node,,mnloc,z
*get,_xmax,node,,mxloc,x
*get,_ymax,node,,mxloc,y
*get,_zmax,node,,mxloc,z
_ASMDIAG=(_xmax-_xmin)*(_xmax-_xmin)+(_ymax-_ymin)*(_ymax-_ymin)+(_zmax-_zmin)*(_zmax-_zmin)
_ASMDIAG=SQRT(_ASMDIAG)
/wb,contact,start          !  starting to send contact
/wb,contact,end            !  done creating contacts
/com,*********** Send Named Selection as Node Component ***********
CMBLOCK,FIXED_SUPPORT,NODE,        9
(8i10)
      1492      2494      2495      2496      2497      7209      9018      9020
      9022
/com,*********** Send Named Selection as Node Component ***********
CMBLOCK,DISPLACEMENT_SUPPORT,NODE,        9
(8i10)
      1592      2498      2499      2500      2501      7408      9025      9027
      9029
/com,*********** Send Named Selection as Node Component ***********
CMBLOCK,CONCENTRATED_LOAD,NODE,        9
(8i10)
      1693      1894      1895      1896      1897      7609      7964      7966
      7968
/golist
/wb,load,start             !  starting to send loads
/com,*********** Fixed Supports ***********
CMBLOCK,_FIXEDSU,NODE,        9
(8i10)
      1492      2494      2495      2496      2497      7209      9018      9020
      9022
cmsel,s,_FIXEDSU
d,all,all
nsel,all
/com,******* Constant Zero Displacement Y *******
CMBLOCK,_DISPZEROUY,NODE,        9
(8i10)
      1592      2498      2499      2500      2501      7408      9025      9027
      9029
cmsel,s,_DISPZEROUY
d,all,uy,0
nsel,all
/com,******* Constant Zero Displacement Z *******
CMBLOCK,_DISPZEROUZ,NODE,        9
(8i10)
      1592      2498      2499      2500      2501      7408      9025      9027
      9029
cmsel,s,_DISPZEROUZ
d,all,uz,0
nsel,all
/com,*********** Define Force Using Surface Effect Elements ***********
local,14,0,0.,0.,0.,0.,0.,0.
csys,0
et,2,156
keyop,2,5,1         !  No orientation node
eblock,10,,,4
(15i9)
     3233        2        2        2       14     1895     1894     7964
     3234        2        2        2       14     1895     1896     7966
     3235        2        2        2       14     1896     1897     7968
     3236        2        2        2       14     1897     1693     7609
-1
esel,s,type,,2
keyop,2,2,1                ! Apply load in local coordinate system
keyop,2,7,1                ! Use original area so load is constant in large deformation
esel,all
/gst,on,on
fini
*get,_numnode,node,0,count
*get,_numelem,elem,0,count
*get, _MAXELEMNUM, elem, 0, NUM, MAX
*get, _MAXNODENUM, node, 0, NUM, MAX
*get, _MAXELEMTYPE, etyp, 0, NUM, MAX
*get, _MAXREALCONST, rcon, 0, NUM, MAX
/go
/wb,load,end               !  done creating loads
/com,--- Number of total nodes = %_numnode%
/com,--- Number of contact elements = 4
/com,--- Number of spring elements = 0
/com,--- Number of bearing elements = 0
/com,--- Number of solid elements = 1600
/com,--- Number of condensed parts = 0
/com,--- Number of total elements = %_numelem%
*get,_wallbsol,active,,time,wall
/com,****************************************************************************
/com,*************************    SOLUTION       ********************************
/com,****************************************************************************
/solu
antype,0                   ! static analysis
_thickRatio=  1     ! Ratio of thick parts in the model
eqsl,pcg,1e-8,,,,,,1
cntr,print,1               ! print out contact info and also make no initial contact an error
dmpoption,emat,no             ! Don't combine emat file for DANSYS
dmpoption,esav,no             ! Don't combine esav file for DANSYS
nldiag,cont,iter           ! print out contact info each equilibrium iteration
rescontrol,,none                 ! Do not keep any restart files
/com,****************************************************
/com,******************* SOLVE FOR LS 1 OF 1 ****************
esel,s,type,,2
nsle
sfe,all,1,pres,1,0.
sfe,all,2,pres,1,-125.
sfe,all,3,pres,1,0.
nsel,all
esel,all
/nopr
/gopr
nsub,1,1,1
time,1.
outres,erase
outres,all,none
outres,nsol,all,
outres,rsol,all
outres,eangl,all
outres,etmp,all
outres,veng,all
outres,strs,all,
outres,epel,all,
outres,eppl,all,
outres,cont,all,
! *********** WB SOLVE COMMAND ***********
! check interactive state
*get,ANSINTER_,active,,int
*if,ANSINTER_,ne,0,then
/eof
*endif
solve
/com *************** Write FE CONNECTORS ********* 
CEWRITE,file,ce,,INTE
/com,****************************************************
/com,*************** FINISHED SOLVE FOR LS 1 *************
*get,_wallasol,active,,time,wall
/nopr
*get,_numnode,node,0,count
*get,_numelem,elem,0,count
*get, _MAXELEMNUM, elem, 0, NUM, MAX
*get, _MAXNODENUM, node, 0, NUM, MAX,,,INTERNAL
*get, _MAXELEMTYPE, etyp, 0, NUM, MAX
*get, _MAXREALCONST, rcon, 0, NUM, MAX
*get,_NSOLTHREADS,active,0,ntfs
*get,_NSOLPROCESSES,active,0,npfs
/gopr
*get,_PCGITER,active,,solu,cgiter
/post1
xmlo,ENCODING,ISO-8859-1
xmlo,parm
/xml,parm,xml
fini
/gopr
*get,_walldone,active,,time,wall
_preptime=(_wallbsol-_wallstrt)*3600
_solvtime=(_wallasol-_wallbsol)*3600
_posttime=(_walldone-_wallasol)*3600
_totaltim=(_walldone-_wallstrt)*3600
*get,_dlbratio,active,0,solu,dlbr
*get,_combtime,active,0,solu,comb
*get,_ssmode,active,0,solu,ssmm
*get,_ndofs,active,0,solu,ndof
*get,_sol_end_time,active,0,set,time
*if,_sol_end_time,eq,1.000000,then
/fclean				!clean distributed files
*endif
/com,--- Total number of nodes = %_numnode%
/com,--- Total number of elements = %_numelem%
/com,--- Element load balance ratio = %_dlbratio%
/com,--- Time to combine distributed files = %_combtime%
/com,--- Sparse memory mode = %_ssmode%
/com,--- Number of DOF = %_ndofs%
/wb,file,end               ! done with WB generated input
