/batch
/config,noeldb,1     ! force off writing results to database
*get,_wallstrt,active,,time,wall
! ANSYS input file written by Workbench version 2022 R2
! File used for geometry attach: C:\Users\Admin\PycharmProjects\Github\thesis_files\master thesisio\ansys\design1_files\dp0\SYS-4\DM\SYS-4.agdb
/title,design1--Static Structural (A5)
! ****** Begin Custom Load Command Snippet ******
/COM, ACT Extensions:
/COM,     LSDYNA, 2022.2
/COM,     5f463412-bd3e-484b-87e7-cbc0a665e474, wbex
/COM,/COM,     ANSYSMotion, 2022.2
/COM,     20180725-3f81-49eb-9f31-41364844c769, wbex
/COM,
! ****** End   Custom Load Command Snippet ******
*DIM,_wb_ProjectScratch_dir,string,248
_wb_ProjectScratch_dir(1) = 'C:\Users\Admin\PycharmProjects\Github\thesis_files\master thesisio\ansys\_ProjectScratch\ScrC9DC\'
*DIM,_wb_SolverFiles_dir,string,248
_wb_SolverFiles_dir(1) = 'C:\Users\Admin\PycharmProjects\Github\thesis_files\master thesisio\ansys\design1_files\dp0\SYS-4\MECH\'
*DIM,_wb_userfiles_dir,string,248
_wb_userfiles_dir(1) = 'C:\Users\Admin\PycharmProjects\Github\thesis_files\master thesisio\ansys\design1_files\user_files\'
/com,--- Data in consistent NMM units. See Solving Units in the help system for more information.
/units,MPA
/nopr
/wb,file,start              !  signify a WB generated input file
/prep7
! Turn off shape checking because checks already performed inside WB mesher.
! See help system for more information.
SHPP,OFF,,NOWARN
/nolist
etcon,set             ! allow ANSYS to choose best KEYOP's for 180x elements, resets any applicable keyopt to MAPDL defaults
/com,*********** Nodes for the whole assembly ***********
nblock,3,,1673
(1i9,3e20.9e3)
        1     9.800000000E+02     0.000000000E+00     0.000000000E+00
        2     9.600000000E+02     0.000000000E+00     0.000000000E+00
        3     9.400000000E+02     0.000000000E+00     0.000000000E+00
        4     9.200000000E+02     0.000000000E+00     0.000000000E+00
        5     9.000000000E+02     0.000000000E+00     0.000000000E+00
        6     8.800000000E+02     0.000000000E+00     0.000000000E+00
        7     8.600000000E+02     0.000000000E+00     0.000000000E+00
        8     8.400000000E+02     0.000000000E+00     0.000000000E+00
        9     8.200000000E+02     0.000000000E+00     0.000000000E+00
       10     8.000000000E+02     0.000000000E+00     0.000000000E+00
       11     7.800000000E+02     0.000000000E+00     0.000000000E+00
       12     7.600000000E+02     0.000000000E+00     0.000000000E+00
       13     7.400000000E+02     0.000000000E+00     0.000000000E+00
       14     7.200000000E+02     0.000000000E+00     0.000000000E+00
       15     7.000000000E+02     0.000000000E+00     0.000000000E+00
       16     6.800000000E+02     0.000000000E+00     0.000000000E+00
       17     6.600000000E+02     0.000000000E+00     0.000000000E+00
       18     6.400000000E+02     0.000000000E+00     0.000000000E+00
       19     6.200000000E+02     0.000000000E+00     0.000000000E+00
       20     6.000000000E+02     0.000000000E+00     0.000000000E+00
! ... 1502 like lines cut
/wb,elem,start            !  set before creation of elements
/com,*********** Elements for Body 1 "Solid" ***********
et,1,186
keyo,1,2,1          ! set full integration on SOLID186
eblock,19,solid,,200
(19i9)
        1        1        1        1        0        0        0        0       20        0        1        1      456      455      402       98      457      454      403
      465     1519     1463      464      853     1518     1465      852      461     1520     1517     1462
        1        1        1        1        0        0        0        0       20        0        2        1      402      455      456       99      199      200      149
      464     1463     1519      465      856     1106     1005      855      462     1107     1108     1007
        1        1        1        1        0        0        0        0       20        0        3        1      304      352      456       98      328      353      457
      463     1292     1363      465      851     1339     1364      853      461     1291     1362     1520
        1        1        1        1        0        0        0        0       20        0        4        1      456      352      304       99      149      225      224
      465     1363     1292      463      855     1006     1156      857      462     1007     1158     1157
        1        1        1        1        0        0        0        0       20        0        5        1      402      401        2       98      403      404       97
      464     1460      470      460      852     1464      850      848      461     1462     1461      467
        1        1        1        1        0        0        0        0       20        0        6        1        2      401      402       99      100      198      199
      460      470     1460      464      854      859     1104      856      462      468     1105     1107
        1        1        1        1        0        0        0        0       20        0        7        1        2      305      304       98       97      329      328
      460      469     1290      463      848      849     1338      851      461      467     1294     1291
        1        1        1        1        0        0        0        0       20        0        8        1      304      305        2       99      224      223      100
      463     1290      469      460      857     1154      860      854      462     1157     1155      468
        1        1        1        1        0        0        0        0       20        0        9        2      401      400        3       97      404      405       96
      470     1458      475      466      850     1466      847      845      467     1461     1459      472
        1        1        1        1        0        0        0        0       20        0       10        2        3      400      401      100      101      197      198
      466      475     1458      470      858      862     1102      859      468      473     1103     1105
! ... 381 like lines cut
!Material Id = {49233BB8-BC7D-4739-A4BB-3F7A5ABCFA0A}
/wb,elem,end               !  done creating elements
/com,*********** Send User Defined Coordinate System(s) ***********
local,12,0,0.,20.,0.,0.,0.,0.
local,13,0,0.,-20.,0.,0.,0.,0.
csys,0
toffst,273.15,  ! Temperature offset from absolute zero
/com,*********** Set Reference Temperature ***********
tref,22.
/wb,mat,start              !  starting to send materials
/com,*********** Send Materials ***********
MP,EX,1,210000,	! tonne s^-2 mm^-1
MP,NUXY,1,0.3,
MP,UVID,1,2b27657b-3701-4640-ae46-460b465c7321

/wb,mat,end                !  done sending materials
!************************* Model Summary ********************
!Solid,	structural steel new,	matid,	1
!************************* End Model Summary ********************
! get the diagonal of the bounding box. Needed later for other things
*get,_xmin,node,,mnloc,x
*get,_ymin,node,,mnloc,y
*get,_zmin,node,,mnloc,z
*get,_xmax,node,,mxloc,x
*get,_ymax,node,,mxloc,y
*get,_zmax,node,,mxloc,z
_ASMDIAG=(_xmax-_xmin)*(_xmax-_xmin)+(_ymax-_ymin)*(_ymax-_ymin)+(_zmax-_zmin)*(_zmax-_zmin)
_ASMDIAG=SQRT(_ASMDIAG)
/wb,contact,start          !  starting to send contact
/wb,contact,end            !  done creating contacts
/com,*********** Send Named Selection as Node Component ***********
CMBLOCK,LEFT_EDGE,NODE,        5
(8i10)
       150       452       453      1009      1514
/com,*********** Send Named Selection as Node Component ***********
CMBLOCK,RIGHT_EDGE,NODE,        5
(8i10)
       200       454       455      1108      1517
/com,*********** Send Named Selection as Node Component ***********
CMBLOCK,LOAD    ,NODE,        5
(8i10)
       251       302       303      1209      1287
/golist
/wb,load,start             !  starting to send loads
/com,*********** Fixed Supports ***********
CMBLOCK,_FIXEDSU,NODE,        5
(8i10)
       150       452       453      1009      1514
cmsel,s,_FIXEDSU
d,all,all
nsel,all
/com,******* Constant Zero Displacement Y *******
CMBLOCK,_DISPZEROUY,NODE,        5
(8i10)
       200       454       455      1108      1517
cmsel,s,_DISPZEROUY
d,all,uy,0
nsel,all
/com,******* Constant Zero Displacement Z *******
CMBLOCK,_DISPZEROUZ,NODE,        5
(8i10)
       200       454       455      1108      1517
cmsel,s,_DISPZEROUZ
d,all,uz,0
nsel,all
/com,*********** Define Force Using Surface Effect Elements ***********
local,14,0,0.,0.,0.,0.,0.,0.
csys,0
et,2,156
keyop,2,5,1         !  No orientation node
eblock,10,,,2
(15i9)
      609        2        2        2       14      303      302     1287
      610        2        2        2       14      303      251     1209
-1
esel,s,type,,2
keyop,2,2,1                ! Apply load in local coordinate system
keyop,2,7,1                ! Use original area so load is constant in large deformation
esel,all
/gst,on,on
fini
*get,_numnode,node,0,count
*get,_numelem,elem,0,count
*get, _MAXELEMNUM, elem, 0, NUM, MAX
*get, _MAXNODENUM, node, 0, NUM, MAX
*get, _MAXELEMTYPE, etyp, 0, NUM, MAX
*get, _MAXREALCONST, rcon, 0, NUM, MAX
/go
/wb,load,end               !  done creating loads
/com,--- Number of total nodes = %_numnode%
/com,--- Number of contact elements = 2
/com,--- Number of spring elements = 0
/com,--- Number of bearing elements = 0
/com,--- Number of solid elements = 200
/com,--- Number of condensed parts = 0
/com,--- Number of total elements = %_numelem%
*get,_wallbsol,active,,time,wall
/com,****************************************************************************
/com,*************************    SOLUTION       ********************************
/com,****************************************************************************
/solu
antype,0                   ! static analysis
_thickRatio=  0     ! Ratio of thick parts in the model
eqsl,sparse,,,,,1
cntr,print,1               ! print out contact info and also make no initial contact an error
dmpoption,emat,no             ! Don't combine emat file for DANSYS
dmpoption,esav,no             ! Don't combine esav file for DANSYS
nldiag,cont,iter           ! print out contact info each equilibrium iteration
rescontrol,,none                 ! Do not keep any restart files
/com,****************************************************
/com,******************* SOLVE FOR LS 1 OF 1 ****************
esel,s,type,,2
nsle
sfe,all,1,pres,1,0.
sfe,all,2,pres,1,-125.
sfe,all,3,pres,1,0.
nsel,all
esel,all
/nopr
/gopr
nsub,1,1,1
time,1.
outres,erase
outres,all,none
outres,nsol,all,
outres,rsol,all
outres,eangl,all
outres,etmp,all
outres,veng,all
outres,strs,all,
outres,epel,all,
outres,eppl,all,
outres,cont,all,
! *********** WB SOLVE COMMAND ***********
! check interactive state
*get,ANSINTER_,active,,int
*if,ANSINTER_,ne,0,then
/eof
*endif
solve
/com *************** Write FE CONNECTORS ********* 
CEWRITE,file,ce,,INTE
/com,****************************************************
/com,*************** FINISHED SOLVE FOR LS 1 *************
*get,_wallasol,active,,time,wall
/nopr
*get,_numnode,node,0,count
*get,_numelem,elem,0,count
*get, _MAXELEMNUM, elem, 0, NUM, MAX
*get, _MAXNODENUM, node, 0, NUM, MAX,,,INTERNAL
*get, _MAXELEMTYPE, etyp, 0, NUM, MAX
*get, _MAXREALCONST, rcon, 0, NUM, MAX
*get,_NSOLTHREADS,active,0,ntfs
*get,_NSOLPROCESSES,active,0,npfs
/gopr
/post1
xmlo,ENCODING,ISO-8859-1
xmlo,parm
/xml,parm,xml
fini
/gopr
*get,_walldone,active,,time,wall
_preptime=(_wallbsol-_wallstrt)*3600
_solvtime=(_wallasol-_wallbsol)*3600
_posttime=(_walldone-_wallasol)*3600
_totaltim=(_walldone-_wallstrt)*3600
*get,_dlbratio,active,0,solu,dlbr
*get,_combtime,active,0,solu,comb
*get,_ssmode,active,0,solu,ssmm
*get,_ndofs,active,0,solu,ndof
*get,_sol_end_time,active,0,set,time
*if,_sol_end_time,eq,1.000000,then
/fclean				!clean distributed files
*endif
/com,--- Total number of nodes = %_numnode%
/com,--- Total number of elements = %_numelem%
/com,--- Element load balance ratio = %_dlbratio%
/com,--- Time to combine distributed files = %_combtime%
/com,--- Sparse memory mode = %_ssmode%
/com,--- Number of DOF = %_ndofs%
/wb,file,end               ! done with WB generated input
