/batch
/config,noeldb,1     ! force off writing results to database
*get,_wallstrt,active,,time,wall
! ANSYS input file written by Workbench version 2022 R2
! File used for geometry attach: C:\Users\Admin\PycharmProjects\Github\thesis_files\master thesisio\ansys\Thesis_files\dp0\SYS\DM\SYS.scdoc
/title,Thesis--Static Structural (A5)
! ****** Begin Custom Load Command Snippet ******
/COM, ACT Extensions:
/COM,     LSDYNA, 2022.2
/COM,     5f463412-bd3e-484b-87e7-cbc0a665e474, wbex
/COM,/COM,     ANSYSMotion, 2022.2
/COM,     20180725-3f81-49eb-9f31-41364844c769, wbex
/COM,
! ****** End   Custom Load Command Snippet ******
*DIM,_wb_ProjectScratch_dir,string,248
_wb_ProjectScratch_dir(1) = 'C:\Users\Admin\PycharmProjects\Github\thesis_files\master thesisio\ansys\_ProjectScratch\ScrD537\'
*DIM,_wb_SolverFiles_dir,string,248
_wb_SolverFiles_dir(1) = 'C:\Users\Admin\PycharmProjects\Github\thesis_files\master thesisio\ansys\Thesis_files\dp0\SYS\MECH\'
*DIM,_wb_userfiles_dir,string,248
_wb_userfiles_dir(1) = 'C:\Users\Admin\PycharmProjects\Github\thesis_files\master thesisio\ansys\Thesis_files\user_files\'
/com,--- Data in consistent NMM units. See Solving Units in the help system for more information.
/units,MPA
/nopr
/wb,file,start              !  signify a WB generated input file
/prep7
! Turn off shape checking because checks already performed inside WB mesher.
! See help system for more information.
SHPP,OFF,,NOWARN
/nolist
etcon,set             ! allow ANSYS to choose best KEYOP's for 180x elements, resets any applicable keyopt to MAPDL defaults
/com,*********** Nodes for the whole assembly ***********
nblock,3,,9971
(1i9,3e20.9e3)
        1     9.900000000E+02    -1.000000000E+01    -1.000000000E+01
        2     9.900000000E+02     0.000000000E+00    -1.000000000E+01
        3     9.900000000E+02     1.000000000E+01    -1.000000000E+01
        4     9.900000000E+02    -1.000000000E+01     0.000000000E+00
        5     9.900000000E+02     0.000000000E+00     0.000000000E+00
        6     9.900000000E+02     1.000000000E+01     0.000000000E+00
        7     9.900000000E+02    -1.000000000E+01     1.000000000E+01
        8     9.900000000E+02     0.000000000E+00     1.000000000E+01
        9     9.900000000E+02     1.000000000E+01     1.000000000E+01
       10     9.800000000E+02    -1.000000000E+01    -1.000000000E+01
       11     9.800000000E+02     0.000000000E+00    -1.000000000E+01
       12     9.800000000E+02     1.000000000E+01    -1.000000000E+01
       13     9.800000000E+02    -1.000000000E+01     0.000000000E+00
       14     9.800000000E+02     0.000000000E+00     0.000000000E+00
       15     9.800000000E+02     1.000000000E+01     0.000000000E+00
       16     9.800000000E+02    -1.000000000E+01     1.000000000E+01
       17     9.800000000E+02     0.000000000E+00     1.000000000E+01
       18     9.800000000E+02     1.000000000E+01     1.000000000E+01
       19     9.700000000E+02    -1.000000000E+01    -1.000000000E+01
       20     9.700000000E+02     0.000000000E+00    -1.000000000E+01
! ... 9046 like lines cut
/wb,elem,start            !  set before creation of elements
/com,*********** Elements for Body 1 "SYS\Rectangular Beam" ***********
et,1,186
keyo,1,2,1          ! set full integration on SOLID186
eblock,19,solid,,1600
(19i9)
        1        1        1        1        0        0        0        0       20        0        1        1     2098     2499     2502     1188     2493     2498     2511
     2530     8324     9028     2531     6496     9017     9026     6497     2529     8323     9025     9034
        1        1        1        1        0        0        0        0       20        0        2        1     2502     2499     2098        2     2505     2500     2099
     2531     9028     8324     2530     2536     9030     8327     2535     2526     9033     9027     8321
        1        1        1        1        0        0        0        0       20        0        3        2     2505     2500     2099        3     2508     2501     2100
     2536     9030     8327     2535     2541     9031     8329     2540     2532     9041     9029     8325
        1        1        1        1        0        0        0        0       20        0        4        3     2508     2501     2100     1189     1489     1492     1493
     2541     9031     8329     2540     6500     7202     7208     6501     2539     7203     7209     7211
        1        1        1        1        0        0        0        0       20        0        5        1       10     2101     2098     1188     1185     2492     2493
     2528     2572     8322     2530     6489     6490     9016     6496     2529     2571     8332     8323
        1        1        1        1        0        0        0        0       20        0        6        1     2098     2101       10        2     2099     2102       11
     2530     8322     2572     2528     2535     8326     2576     2534     2526     8321     8330     2568
        1        1        1        1        0        0        0        0       20        0        7        2     2099     2102       11        3     2100     2103       12
     2535     8326     2576     2534     2540     8328     2580     2538     2532     8325     8333     2573
        1        1        1        1        0        0        0        0       20        0        8        3     2100     2103       12     1189     1493     1494     1192
     2540     8328     2580     2538     6501     7210     6510     6499     2539     7211     7213     2579
        1        1        1        1        0        0        0        0       20        0        9       10       19     2104     2101     1185     1182     2491     2492
     2570     2605     8331     2572     6482     6483     9015     6490     2571     2604     8338     8332
        1        1        1        1        0        0        0        0       20        0       10       10     2101     2104       19       11     2102     2105       20
     2572     8331     2605     2570     2576     8334     2609     2575     2568     8330     8336     2601
! ... 3181 like lines cut
!Material Id = {B10DA3C2-BC4C-488A-A671-0A8771F5048D}
/wb,elem,end               !  done creating elements
/com,*********** Send User Defined Coordinate System(s) ***********
local,12,0,0.,-20.,0.,0.,0.,0.
local,13,0,0.,0.,0.,0.,0.,0.
local,14,0,0.,20.,0.,0.,0.,0.
csys,0
toffst,273.15,  ! Temperature offset from absolute zero
/com,*********** Set Reference Temperature ***********
tref,22.
/wb,mat,start              !  starting to send materials
/com,*********** Send Materials ***********
Temperature = 'TEMP' ! Temperature
MP,DENS,1,7.85e-09,	! tonne mm^-3
MP,ALPX,1,1.2e-05,	! C^-1
MP,C,1,434000000,	! mm^2 s^-2 C^-1
MP,KXX,1,60.5,	! tonne mm s^-3 C^-1
MP,RSVX,1,0.00017,	! ohm mm
MP,EX,1,200000,	! tonne s^-2 mm^-1
MP,NUXY,1,0.3,
MP,MURX,1,10000,
MP,UVID,1,597b9f22-02f1-4e5a-b53b-a5390c8c0b6a
MP,UMID,1,59002a79-71c2-428e-906b-55d7dbee100e

/wb,mat,end                !  done sending materials
!************************* Model Summary ********************
!SYS\Rectangular Beam,	Structural Steel,	matid,	1
!************************* End Model Summary ********************
! get the diagonal of the bounding box. Needed later for other things
*get,_xmin,node,,mnloc,x
*get,_ymin,node,,mnloc,y
*get,_zmin,node,,mnloc,z
*get,_xmax,node,,mxloc,x
*get,_ymax,node,,mxloc,y
*get,_zmax,node,,mxloc,z
_ASMDIAG=(_xmax-_xmin)*(_xmax-_xmin)+(_ymax-_ymin)*(_ymax-_ymin)+(_zmax-_zmin)*(_zmax-_zmin)
_ASMDIAG=SQRT(_ASMDIAG)
/wb,contact,start          !  starting to send contact
/wb,contact,end            !  done creating contacts
/com,*********** Send Named Selection as Node Component ***********
CMBLOCK,FULL_BODY,NODE,     4898
(8i10)
       892       893       894       895       896       897       898       899
       900       901       902       903       904       905       906       907
       908       909       910       911       912       913       914       915
       916       917       918       919       920       921       922       923
       924       925       926       927       928       929       930       931
       932       933       934       935       936       937       938       939
       940       941       942       943       944       945       946       947
       948       949       950       951       952       953       954       955
       956       957       958       959       960       961       962       963
       964       965       966       967       968       969       970       971
       972       973       974       975       976       977       978       979
       980       981       982       983       984       985       986       987
       988       989       990       991       992       993       994       995
       996       997       998       999      1000      1001      1002      1003
      1004      1005      1006      1007      1008      1009      1010      1011
      1012      1013      1014      1015      1016      1017      1018      1019
      1020      1021      1022      1023      1024      1025      1026      1027
      1028      1029      1030      1031      1032      1033      1034      1035
      1036      1037      1038      1039      1040      1041      1042      1043
      1044      1045      1046      1047      1048      1049      1050      1051
! ... 593 like lines cut
/com,*********** Send Named Selection as Node Component ***********
CMBLOCK,TOP_FACE,NODE,     1409
(8i10)
      1189      1190      1191      1192      1193      1194      1195      1196
      1197      1198      1199      1200      1201      1202      1203      1204
      1205      1206      1207      1208      1209      1210      1211      1212
      1213      1214      1215      1216      1217      1218      1219      1220
      1221      1222      1223      1224      1225      1226      1227      1228
      1229      1230      1231      1232      1233      1234      1235      1236
      1237      1238      1239      1240      1241      1242      1243      1244
      1245      1246      1247      1248      1249      1250      1251      1252
      1253      1254      1255      1256      1257      1258      1259      1260
      1261      1262      1263      1264      1265      1266      1267      1268
      1269      1270      1271      1272      1273      1274      1275      1276
      1277      1278      1279      1280      1281      1282      1283      1284
      1285      1286      1287      1288      1289      1290      1291      1292
      1293      1294      1295      1296      1297      1298      1299      1300
      1301      1302      1303      1304      1305      1306      1307      1308
      1309      1310      1311      1312      1313      1314      1315      1316
      1317      1318      1319      1320      1321      1322      1323      1324
      1325      1326      1327      1328      1329      1330      1331      1332
      1333      1334      1335      1336      1337      1338      1339      1340
      1341      1342      1343      1344      1345      1346      1347      1348
! ... 157 like lines cut
/com,*********** Send Named Selection as Node Component ***********
CMBLOCK,RIGHT_END_EDGE,NODE,        9
(8i10)
      2097      2498      2511      2512      2513      8320      9026      9047
      9048
/com,*********** Send Named Selection as Node Component ***********
CMBLOCK,LEFT_END_EDGE,NODE,        9
(8i10)
      2090      2497      2523      2524      2525      8308      9024      9064
      9065
/golist
/wb,load,start             !  starting to send loads
/com,*********** Fixed Supports ***********
CMBLOCK,_FIXEDSU,NODE,        9
(8i10)
      2090      2497      2523      2524      2525      8308      9024      9064
      9065
cmsel,s,_FIXEDSU
d,all,all
nsel,all
/com,******* Constant Zero Displacement Y *******
CMBLOCK,_DISPZEROUY,NODE,        9
(8i10)
      2097      2498      2511      2512      2513      8320      9026      9047
      9048
cmsel,s,_DISPZEROUY
d,all,uy,0
nsel,all
/com,******* Constant Zero Displacement Z *******
CMBLOCK,_DISPZEROUZ,NODE,        9
(8i10)
      2097      2498      2511      2512      2513      8320      9026      9047
      9048
cmsel,s,_DISPZEROUZ
d,all,uz,0
nsel,all
/com,*********** Define Force Using Surface Effect Elements ***********
local,15,0,0.,0.,0.,0.,0.,0.
csys,0
et,2,154
eblock,10,,,400
(15i9)
     3233        2        2        2       15     1493     1189     1489     1492     6501     6500     7202     7208
     3234        2        2        2       15     1494     1192     1189     1493     6510     6499     6501     7210
     3235        2        2        2       15     1495     1195     1192     1494     6517     6509     6510     7212
     3236        2        2        2       15     1496     1198     1195     1495     6524     6516     6517     7214
     3237        2        2        2       15     1497     1201     1198     1496     6531     6523     6524     7216
     3238        2        2        2       15     1498     1204     1201     1497     6538     6530     6531     7218
     3239        2        2        2       15     1499     1207     1204     1498     6545     6537     6538     7220
     3240        2        2        2       15     1500     1210     1207     1499     6552     6544     6545     7222
     3241        2        2        2       15     1501     1213     1210     1500     6559     6551     6552     7224
     3242        2        2        2       15     1502     1216     1213     1501     6566     6558     6559     7226
     3243        2        2        2       15     1503     1219     1216     1502     6573     6565     6566     7228
     3244        2        2        2       15     1504     1222     1219     1503     6580     6572     6573     7230
     3245        2        2        2       15     1505     1225     1222     1504     6587     6579     6580     7232
     3246        2        2        2       15     1506     1228     1225     1505     6594     6586     6587     7234
     3247        2        2        2       15     1507     1231     1228     1506     6601     6593     6594     7236
     3248        2        2        2       15     1508     1234     1231     1507     6608     6600     6601     7238
     3249        2        2        2       15     1509     1237     1234     1508     6615     6607     6608     7240
     3250        2        2        2       15     1510     1240     1237     1509     6622     6614     6615     7242
     3251        2        2        2       15     1511     1243     1240     1510     6629     6621     6622     7244
     3252        2        2        2       15     1512     1246     1243     1511     6636     6628     6629     7246
! ... 381 like lines cut
esel,s,type,,2
keyop,2,2,1                ! Apply load in local coordinate system
keyop,2,7,1                ! Use original area so load is constant in large deformation
esel,all
/gst,on,on
fini
*get,_numnode,node,0,count
*get,_numelem,elem,0,count
*get, _MAXELEMNUM, elem, 0, NUM, MAX
*get, _MAXNODENUM, node, 0, NUM, MAX
*get, _MAXELEMTYPE, etyp, 0, NUM, MAX
*get, _MAXREALCONST, rcon, 0, NUM, MAX
/go
/wb,load,end               !  done creating loads
/com,--- Number of total nodes = %_numnode%
/com,--- Number of contact elements = 400
/com,--- Number of spring elements = 0
/com,--- Number of bearing elements = 0
/com,--- Number of solid elements = 1600
/com,--- Number of condensed parts = 0
/com,--- Number of total elements = %_numelem%
*get,_wallbsol,active,,time,wall
/com,****************************************************************************
/com,*************************    SOLUTION       ********************************
/com,****************************************************************************
/solu
antype,0                   ! static analysis
_thickRatio=  1     ! Ratio of thick parts in the model
eqsl,pcg,1e-8,,,,,,1
cntr,print,1               ! print out contact info and also make no initial contact an error
dmpoption,emat,no             ! Don't combine emat file for DANSYS
dmpoption,esav,no             ! Don't combine esav file for DANSYS
nldiag,cont,iter           ! print out contact info each equilibrium iteration
rescontrol,,none                 ! Do not keep any restart files
/com,****************************************************
/com,******************* SOLVE FOR LS 1 OF 1 ****************
esel,s,type,,2
nsle
sfe,all,1,pres,1,0.
sfe,all,2,pres,1,-0.12500000000001
sfe,all,3,pres,1,0.
nsel,all
esel,all
/nopr
/gopr
nsub,1,1,1
time,1.
outres,erase
outres,all,none
outres,nsol,all,
outres,rsol,all
outres,eangl,all
outres,etmp,all
outres,veng,all
outres,strs,all,
outres,epel,all,
outres,eppl,all,
outres,cont,all,
! *********** WB SOLVE COMMAND ***********
! check interactive state
*get,ANSINTER_,active,,int
*if,ANSINTER_,ne,0,then
/eof
*endif
solve
/com *************** Write FE CONNECTORS ********* 
CEWRITE,file,ce,,INTE
/com,****************************************************
/com,*************** FINISHED SOLVE FOR LS 1 *************
*get,_wallasol,active,,time,wall
/nopr
*get,_numnode,node,0,count
*get,_numelem,elem,0,count
*get, _MAXELEMNUM, elem, 0, NUM, MAX
*get, _MAXNODENUM, node, 0, NUM, MAX,,,INTERNAL
*get, _MAXELEMTYPE, etyp, 0, NUM, MAX
*get, _MAXREALCONST, rcon, 0, NUM, MAX
*get,_NSOLTHREADS,active,0,ntfs
*get,_NSOLPROCESSES,active,0,npfs
/gopr
*get,_PCGITER,active,,solu,cgiter
/post1
xmlo,ENCODING,ISO-8859-1
xmlo,parm
/xml,parm,xml
fini
/gopr
*get,_walldone,active,,time,wall
_preptime=(_wallbsol-_wallstrt)*3600
_solvtime=(_wallasol-_wallbsol)*3600
_posttime=(_walldone-_wallasol)*3600
_totaltim=(_walldone-_wallstrt)*3600
*get,_dlbratio,active,0,solu,dlbr
*get,_combtime,active,0,solu,comb
*get,_ssmode,active,0,solu,ssmm
*get,_ndofs,active,0,solu,ndof
*get,_sol_end_time,active,0,set,time
*if,_sol_end_time,eq,1.000000,then
/fclean				!clean distributed files
*endif
/com,--- Total number of nodes = %_numnode%
/com,--- Total number of elements = %_numelem%
/com,--- Element load balance ratio = %_dlbratio%
/com,--- Time to combine distributed files = %_combtime%
/com,--- Sparse memory mode = %_ssmode%
/com,--- Number of DOF = %_ndofs%
/wb,file,end               ! done with WB generated input
