/batch
/config,noeldb,1     ! force off writing results to database
*get,_wallstrt,active,,time,wall
! ANSYS input file written by Workbench version 2022 R2
! File used for geometry attach: C:\Users\Admin\PycharmProjects\Github\thesis_files\master thesisio\ansys\Thesis_files\dp0\SYS-4\DM\SYS-4.scdoc
/title,Thesis--Static Structural (D5)
! ****** Begin Custom Load Command Snippet ******
/COM, ACT Extensions:
/COM,     LSDYNA, 2022.2
/COM,     5f463412-bd3e-484b-87e7-cbc0a665e474, wbex
/COM,/COM,     ANSYSMotion, 2022.2
/COM,     20180725-3f81-49eb-9f31-41364844c769, wbex
/COM,
! ****** End   Custom Load Command Snippet ******
*DIM,_wb_ProjectScratch_dir,string,248
_wb_ProjectScratch_dir(1) = 'C:\Users\Admin\PycharmProjects\Github\thesis_files\master thesisio\ansys\_ProjectScratch\Scr15B2\'
*DIM,_wb_SolverFiles_dir,string,248
_wb_SolverFiles_dir(1) = 'C:\Users\Admin\PycharmProjects\Github\thesis_files\master thesisio\ansys\Thesis_files\dp0\SYS-4\MECH\'
*DIM,_wb_userfiles_dir,string,248
_wb_userfiles_dir(1) = 'C:\Users\Admin\PycharmProjects\Github\thesis_files\master thesisio\ansys\Thesis_files\user_files\'
/com,--- Data in consistent NMM units. See Solving Units in the help system for more information.
/units,MPA
/nopr
/wb,file,start              !  signify a WB generated input file
/prep7
! Turn off shape checking because checks already performed inside WB mesher.
! See help system for more information.
SHPP,OFF,,NOWARN
/nolist
etcon,set             ! allow ANSYS to choose best KEYOP's for 180x elements, resets any applicable keyopt to MAPDL defaults
/com,*********** Nodes for the whole assembly ***********
nblock,3,,221
(1i9,3e20.9e3)
        1     0.000000000E+00     0.000000000E+00     0.000000000E+00
        2     5.000000000E+02     0.000000000E+00     0.000000000E+00
        3     1.000000000E+01     0.000000000E+00     0.000000000E+00
        4     2.000000000E+01     0.000000000E+00     0.000000000E+00
        5     3.000000000E+01     0.000000000E+00     0.000000000E+00
        6     4.000000000E+01     0.000000000E+00     0.000000000E+00
        7     5.000000000E+01     0.000000000E+00     0.000000000E+00
        8     6.000000000E+01     0.000000000E+00     0.000000000E+00
        9     7.000000000E+01     0.000000000E+00     0.000000000E+00
       10     8.000000000E+01     0.000000000E+00     0.000000000E+00
       11     9.000000000E+01     0.000000000E+00     0.000000000E+00
       12     1.000000000E+02     0.000000000E+00     0.000000000E+00
       13     1.100000000E+02     0.000000000E+00     0.000000000E+00
       14     1.200000000E+02     0.000000000E+00     0.000000000E+00
       15     1.300000000E+02     0.000000000E+00     0.000000000E+00
       16     1.400000000E+02     0.000000000E+00     0.000000000E+00
       17     1.500000000E+02     0.000000000E+00     0.000000000E+00
       18     1.600000000E+02     0.000000000E+00     0.000000000E+00
       19     1.700000000E+02     0.000000000E+00     0.000000000E+00
       20     1.800000000E+02     0.000000000E+00     0.000000000E+00
! ... 182 like lines cut
/wb,elem,start            !  set before creation of elements
/com,*********** Elements for Body 1 "Beam (Rectangle)" ***********
et,1,188
keyo,1,3,2
eblock,19,solid,,100
(19i9)
        1        1        1        1        0        0        0        0        3        0        1        1        3      102
        1        1        1        1        0        0        0        0        3        0        2        3        4      103
        1        1        1        1        0        0        0        0        3        0        3        4        5      104
        1        1        1        1        0        0        0        0        3        0        4        5        6      105
        1        1        1        1        0        0        0        0        3        0        5        6        7      106
        1        1        1        1        0        0        0        0        3        0        6        7        8      107
        1        1        1        1        0        0        0        0        3        0        7        8        9      108
        1        1        1        1        0        0        0        0        3        0        8        9       10      109
        1        1        1        1        0        0        0        0        3        0        9       10       11      110
        1        1        1        1        0        0        0        0        3        0       10       11       12      111
        1        1        1        1        0        0        0        0        3        0       11       12       13      112
        1        1        1        1        0        0        0        0        3        0       12       13       14      113
        1        1        1        1        0        0        0        0        3        0       13       14       15      114
        1        1        1        1        0        0        0        0        3        0       14       15       16      115
        1        1        1        1        0        0        0        0        3        0       15       16       17      116
        1        1        1        1        0        0        0        0        3        0       16       17       18      117
        1        1        1        1        0        0        0        0        3        0       17       18       19      118
        1        1        1        1        0        0        0        0        3        0       18       19       20      119
        1        1        1        1        0        0        0        0        3        0       19       20       21      120
        1        1        1        1        0        0        0        0        3        0       20       21       22      121
! ... 81 like lines cut
!Material Id = {BFA1AB9B-B777-4805-A135-E916D0603EB7}
/wb,elem,end               !  done creating elements
/com,*********** Send User Defined Coordinate System(s) ***********
csys,0
toffst,273.15,  ! Temperature offset from absolute zero
/com,*********** Set Reference Temperature ***********
tref,22.
/wb,mat,start              !  starting to send materials
/com,*********** Send Materials ***********
MP,EX,1,200000,	! tonne s^-2 mm^-1
MP,NUXY,1,0.25,
MP,UVID,1,fbabb043-3246-42e2-898b-0fc0f1a58db5

/wb,mat,end                !  done sending materials
/com,*********** Send Beam Properties ***********
SECTYPE,1,BEAM,RECT
SECDATA,39.9999999999999,39.9999999999999
secoffset,cent

!************************* Model Summary ********************
!Beam (Rectangle),	AISI 1020 steel,	matid,	1
!************************* End Model Summary ********************
! get the diagonal of the bounding box. Needed later for other things
*get,_xmin,node,,mnloc,x
*get,_ymin,node,,mnloc,y
*get,_zmin,node,,mnloc,z
*get,_xmax,node,,mxloc,x
*get,_ymax,node,,mxloc,y
*get,_zmax,node,,mxloc,z
_ASMDIAG=(_xmax-_xmin)*(_xmax-_xmin)+(_ymax-_ymin)*(_ymax-_ymin)+(_zmax-_zmin)*(_zmax-_zmin)
_ASMDIAG=SQRT(_ASMDIAG)
/wb,contact,start          !  starting to send contact
/wb,contact,end            !  done creating contacts
/com,*********** Send Named Selection as Node Component ***********
CMBLOCK,LINE_BODY_SEGMENT1,NODE,       51
(8i10)
         1         2         3         4         5         6         7         8
         9        10        11        12        13        14        15        16
        17        18        19        20        21        22        23        24
        25        26        27        28        29        30        31        32
        33        34        35        36        37        38        39        40
        41        42        43        44        45        46        47        48
        49        50        51
/com,*********** Send Named Selection as Node Component ***********
CMBLOCK,CONCENTRATED_LOAD,NODE,        1
(8i10)
         2
/com,*********** Send Named Selection as Node Component ***********
CMBLOCK,LEFT_END_POINT,NODE,        1
(8i10)
         1
/com,*********** Send Named Selection as Node Component ***********
CMBLOCK,LINE_BODY_SEGMENT2,NODE,       51
(8i10)
         2        52        53        54        55        56        57        58
        59        60        61        62        63        64        65        66
        67        68        69        70        71        72        73        74
        75        76        77        78        79        80        81        82
        83        84        85        86        87        88        89        90
        91        92        93        94        95        96        97        98
        99       100       101
/com,*********** Send Named Selection as Node Component ***********
CMBLOCK,RIGHT_END_POINT,NODE,        1
(8i10)
        52
/com,*********** Send Named Selection as Node Component ***********
CMBLOCK,FULL_BODY,NODE,      101
(8i10)
         1         2         3         4         5         6         7         8
         9        10        11        12        13        14        15        16
        17        18        19        20        21        22        23        24
        25        26        27        28        29        30        31        32
        33        34        35        36        37        38        39        40
        41        42        43        44        45        46        47        48
        49        50        51        52        53        54        55        56
        57        58        59        60        61        62        63        64
        65        66        67        68        69        70        71        72
        73        74        75        76        77        78        79        80
        81        82        83        84        85        86        87        88
        89        90        91        92        93        94        95        96
        97        98        99       100       101
/golist
/wb,load,start             !  starting to send loads
/com,*********** Simple Supports ***********
CMBLOCK,_SIMPLSU,NODE,        1
(8i10)
         1
cmsel,s,_SIMPLSU
d,all,ux,0
d,all,uy,0
d,all,uz,0
nsel,all
/com,******* Constant Zero Displacement Y *******
CMBLOCK,_DISPZEROUY,NODE,        1
(8i10)
        52
cmsel,s,_DISPZEROUY
d,all,uy,0
nsel,all
/com,******* Constant Zero Displacement Z *******
CMBLOCK,_DISPZEROUZ,NODE,        1
(8i10)
        52
cmsel,s,_DISPZEROUZ
d,all,uz,0
nsel,all
/com,********** Rotational Supports X **********
CMBLOCK,_ROTSUX ,NODE,        1
(8i10)
         1
cmsel,s,_ROTSUX
d,all,rotx,0
nsel,all
/com,*********** Define Vertex Force Using Follower Elements ***********
et,2,201
keyo,2,1,1           ! Keep the direction constant
keyo,2,2,1           ! Apply Forces only, not moment
mat,2
real,2
type,2
en,101,2
r,2
rmod,2,1,1.0,              ! FX
mat,3
real,3
type,2
en,102,2
r,3
rmod,3,2,1.0,              ! FY
mat,4
real,4
type,2
en,103,2
r,4
rmod,4,3,1.0,              ! FZ
/gst,on,on
fini
*get,_numnode,node,0,count
*get,_numelem,elem,0,count
*get, _MAXELEMNUM, elem, 0, NUM, MAX
*get, _MAXNODENUM, node, 0, NUM, MAX
*get, _MAXELEMTYPE, etyp, 0, NUM, MAX
*get, _MAXREALCONST, rcon, 0, NUM, MAX
/go
/wb,load,end               !  done creating loads
/com,--- Number of total nodes = %_numnode%
/com,--- Number of contact elements = 0
/com,--- Number of spring elements = 0
/com,--- Number of bearing elements = 0
/com,--- Number of solid elements = 100
/com,--- Number of condensed parts = 0
/com,--- Number of total elements = %_numelem%
*get,_wallbsol,active,,time,wall
/com,****************************************************************************
/com,*************************    SOLUTION       ********************************
/com,****************************************************************************
/solu
antype,0                   ! static analysis
_thickRatio=  0     ! Ratio of thick parts in the model
eqsl,sparse,,,,,1
cntr,print,1               ! print out contact info and also make no initial contact an error
dmpoption,emat,no             ! Don't combine emat file for DANSYS
dmpoption,esav,no             ! Don't combine esav file for DANSYS
nldiag,cont,iter           ! print out contact info each equilibrium iteration
rescontrol,,none                 ! Do not keep any restart files
/com,****************************************************
/com,******************* SOLVE FOR LS 1 OF 1 ****************
esel,s,real,,2
sfe,all,1,pres,1,0.
esel,s,real,,3
sfe,all,1,pres,1,-5000.
esel,s,real,,4
sfe,all,1,pres,1,0.
esel,all
/nopr
/gopr
nsub,1,1,1
time,1.
outres,erase
outres,all,none
outres,nsol,all,
outres,rsol,all
outres,eangl,all
outres,etmp,all
outres,veng,all
outres,strs,all,
outres,epel,all,
outres,eppl,all,
outres,cont,all,
/nopr
esel,s,type,,1
cm,_elmisc,elem
esel,all
/gopr
outres,misc,all,_elmisc
! *********** WB SOLVE COMMAND ***********
! check interactive state
*get,ANSINTER_,active,,int
*if,ANSINTER_,ne,0,then
/eof
*endif
solve
/com *************** Write FE CONNECTORS ********* 
CEWRITE,file,ce,,INTE
/com,****************************************************
/com,*************** FINISHED SOLVE FOR LS 1 *************
*get,_wallasol,active,,time,wall
/nopr
*get,_numnode,node,0,count
*get,_numelem,elem,0,count
*get, _MAXELEMNUM, elem, 0, NUM, MAX
*get, _MAXNODENUM, node, 0, NUM, MAX,,,INTERNAL
*get, _MAXELEMTYPE, etyp, 0, NUM, MAX
*get, _MAXREALCONST, rcon, 0, NUM, MAX
*get,_NSOLTHREADS,active,0,ntfs
*get,_NSOLPROCESSES,active,0,npfs
/gopr
/post1
xmlo,ENCODING,ISO-8859-1
xmlo,parm
/xml,parm,xml
fini
/gopr
*get,_walldone,active,,time,wall
_preptime=(_wallbsol-_wallstrt)*3600
_solvtime=(_wallasol-_wallbsol)*3600
_posttime=(_walldone-_wallasol)*3600
_totaltim=(_walldone-_wallstrt)*3600
*get,_dlbratio,active,0,solu,dlbr
*get,_combtime,active,0,solu,comb
*get,_ssmode,active,0,solu,ssmm
*get,_ndofs,active,0,solu,ndof
*get,_sol_end_time,active,0,set,time
*if,_sol_end_time,eq,1.000000,then
/fclean				!clean distributed files
*endif
/com,--- Total number of nodes = %_numnode%
/com,--- Total number of elements = %_numelem%
/com,--- Element load balance ratio = %_dlbratio%
/com,--- Time to combine distributed files = %_combtime%
/com,--- Sparse memory mode = %_ssmode%
/com,--- Number of DOF = %_ndofs%
/wb,file,end               ! done with WB generated input
