/batch
/config,noeldb,1     ! force off writing results to database
*get,_wallstrt,active,,time,wall
! ANSYS input file written by Workbench version 2022 R2
! File used for geometry attach: C:\Users\Admin\Desktop\master thesis\ANSYS\bending_beam_self_study_files\dp0\SYS-2\DM\SYS-2.agdb
/title,bending_beam_self_study--Static Structural (C5)
! ****** Begin Custom Load Command Snippet ******
/COM, ACT Extensions:
/COM,     LSDYNA, 2022.2
/COM,     5f463412-bd3e-484b-87e7-cbc0a665e474, wbex
/COM,/COM,     ANSYSMotion, 2022.2
/COM,     20180725-3f81-49eb-9f31-41364844c769, wbex
/COM,
! ****** End   Custom Load Command Snippet ******
*DIM,_wb_ProjectScratch_dir,string,248
_wb_ProjectScratch_dir(1) = 'C:\Users\Admin\Desktop\master thesis\ANSYS\_ProjectScratch\Scr371B\'
*DIM,_wb_SolverFiles_dir,string,248
_wb_SolverFiles_dir(1) = 'C:\Users\Admin\Desktop\master thesis\ANSYS\bending_beam_self_study_files\dp0\SYS-2\MECH\'
*DIM,_wb_userfiles_dir,string,248
_wb_userfiles_dir(1) = 'C:\Users\Admin\Desktop\master thesis\ANSYS\bending_beam_self_study_files\user_files\'
/com,--- Data in consistent NMM units. See Solving Units in the help system for more information.
/units,MPA
/nopr
/wb,file,start              !  signify a WB generated input file
/prep7
! Turn off shape checking because checks already performed inside WB mesher.
! See help system for more information.
SHPP,OFF,,NOWARN
/nolist
etcon,set             ! allow ANSYS to choose best KEYOP's for 180x elements, resets any applicable keyopt to MAPDL defaults
/com,*********** Nodes for the whole assembly ***********
nblock,3,,26043
(1i9,3e20.9e3)
        1     3.000000119E+02    -2.079482658E+01    -1.418301459E+01
        2     3.000000119E+02    -2.493397143E+01    -1.831843995E+01
        3     3.000000119E+02    -1.554705758E+01    -1.563470244E+01
        4     3.000000119E+02    -1.930739205E+01    -2.271445803E+01
        5     3.100000028E+02    -2.079482779E+01    -1.418301475E+01
        6     3.100000017E+02    -2.493397184E+01    -1.831843993E+01
        7     3.100000033E+02    -1.554705882E+01    -1.563470254E+01
        8     3.100000018E+02    -1.930739245E+01    -2.271445794E+01
        9     3.000000119E+02    -2.216718519E+01    -8.862931198E+00
       10     3.000000119E+02    -2.853526535E+01    -1.223624216E+01
       11     3.100000032E+02    -2.216718721E+01    -8.862931680E+00
       12     3.100000017E+02    -2.853526640E+01    -1.223624249E+01
       13     3.000000119E+02    -1.481610822E+01    -7.509823823E+00
       14     3.100000037E+02    -1.481611070E+01    -7.509824560E+00
       15     3.000000119E+02    -3.016213619E+01     1.183870995E+01
       16     3.000000119E+02    -3.411600115E+01     7.669783032E+00
       17     3.000000119E+02    -2.671065439E+01     5.331776806E+00
       18     3.000000119E+02    -3.280670614E+01     1.984404109E+00
       19     3.100000012E+02    -3.016212718E+01     1.183873071E+01
       20     3.100000008E+02    -3.411599661E+01     7.669798350E+00
! ... 23657 like lines cut
/com,*********** Nodes for all Remote Points ***********
nblock,3
(1i9,3e20.9e3)
    23677     3.000000119E+02     1.109986051E-15    -2.774965127E-16
    23678     5.000000000E+02     0.000000000E+00     5.081112767E-16
-1
/wb,elem,start            !  set before creation of elements
/com,*********** Elements for Body 1 "Solid" ***********
et,1,186
keyo,1,2,1          ! set full integration on SOLID186
eblock,19,solid,,3696
(19i9)
        1        1        1        1        0        0        0        0       20        0     1401    10965    11003    10935    10937    11118    11156    11088    11090
    23279    23278    23079    23163    11228    23676    23516    23599    23598    23675    23510    23515
        1        1        1        1        0        0        0        0       20        0     1402    11003    11002    10936    10935    11156    11155    11089    11088
    23277    23275    23074    23278    11229    23674    23511    23676    23675    23673    23512    23510
        1        1        1        1        0        0        0        0       20        0     1403    11002    11001    10963    10936    11155    11154    11116    11089
    23274    23272    23159    23275    11230    23672    23596    23674    23673    23671    23593    23512
        1        1        1        1        0        0        0        0       20        0     1404    11001    11000    10879    10963    11154    11153    11032    11116
    23271    23269    23157    23272    11231    23670    23594    23672    23671    23669    23342    23593
        1        1        1        1        0        0        0        0       20        0     1405    11000    10999    10875    10879    11153    11152    11028    11032
    23268    23266    22906    23269    11232    23668    23343    23670    23669    23667    23334    23342
        1        1        1        1        0        0        0        0       20        0     1406    10999    10998    10877    10875    11152    11151    11030    11028
    23265    23263    22898    23266    11233    23666    23335    23668    23667    23665    23336    23334
        1        1        1        1        0        0        0        0       20        0     1407    10998    10997    10962    10877    11151    11150    11115    11030
    23262    23260    23155    23263    11234    23664    23592    23666    23665    23663    23589    23336
        1        1        1        1        0        0        0        0       20        0     1408    10997    10996    10961    10962    11150    11149    11114    11115
    23259    23257    23153    23260    11235    23662    23590    23664    23663    23661    23586    23589
        1        1        1        1        0        0        0        0       20        0     1409    10996    10995    10960    10961    11149    11148    11113    11114
    23256    23254    23150    23257    11236    23660    23587    23662    23661    23659    23583    23586
        1        1        1        1        0        0        0        0       20        0     1410    10995    10994    10959    10960    11148    11147    11112    11113
    23253    23251    23147    23254    11197    23658    23584    23660    23659    23657    23580    23583
! ... 7373 like lines cut
!Material Id = {A7BA3ABE-E8DE-47E8-A40A-DEF973933DC0}
/com,*********** Elements for Body 2 "Solid" ***********
et,2,186
keyo,2,2,1          ! set full integration on SOLID186
eblock,19,solid,,1400
(19i9)
        2        2        2        2        0        0        0        0       20        0        1     1674     1700     1656     1658     1759     1785     1741     1743
     6508     6507     6380     6428     1805     6719     6619     6666     6665     6718     6613     6618
        2        2        2        2        0        0        0        0       20        0        2     1700     1699     1657     1656     1785     1784     1742     1741
     6506     6504     6375     6507     1804     6717     6614     6719     6718     6716     6615     6613
        2        2        2        2        0        0        0        0       20        0        3     1699     1698     1672     1657     1784     1783     1757     1742
     6503     6501     6424     6504     1803     6715     6663     6717     6716     6714     6661     6615
        2        2        2        2        0        0        0        0       20        0        4     1698     1697     1671     1672     1783     1782     1756     1757
     6500     6498     6423     6501     1802     6713     6662     6715     6714     6712     6658     6661
        2        2        2        2        0        0        0        0       20        0        5     1697     1696     1670     1671     1782     1781     1755     1756
     6497     6495     6420     6498     1801     6711     6659     6713     6712     6710     6655     6658
        2        2        2        2        0        0        0        0       20        0        6     1696     1695     1669     1670     1781     1780     1754     1755
     6494     6492     6417     6495     1800     6709     6656     6711     6710     6708     6652     6655
        2        2        2        2        0        0        0        0       20        0        7     1695     1694     1668     1669     1780     1779     1753     1754
     6491     6489     6414     6492     1799     6707     6653     6709     6708     6706     6649     6652
        2        2        2        2        0        0        0        0       20        0        8     1694     1693     1633     1668     1779     1778     1718     1753
     6488     6486     6411     6489     1798     6705     6650     6707     6706     6704     6546     6649
        2        2        2        2        0        0        0        0       20        0        9     1693     1692     1629     1633     1778     1777     1714     1718
     6485     6483     6308     6486     1797     6703     6547     6705     6704     6702     6538     6546
        2        2        2        2        0        0        0        0       20        0       10     1692     1691     1630     1629     1777     1776     1715     1714
     6482     6480     6300     6483     1796     6701     6539     6703     6702     6700     6540     6538
! ... 2781 like lines cut
!Material Id = {32C3C3A7-1A6E-4FB0-8F86-026C9C19E6F5}
/wb,elem,end               !  done creating elements
/com,*********** Send User Defined Coordinate System(s) ***********
local,12,0,300.000011920929,1.10998605080352e-015,-2.77496512700879e-016,0.,0.,0.
local,13,0,500.,0.,5.08111276707646e-016,0.,0.,0.
csys,0
toffst,273.15,  ! Temperature offset from absolute zero
/com,*********** Set Reference Temperature ***********
tref,22.
/wb,mat,start              !  starting to send materials
/com,*********** Send Materials ***********
MP,EX,1,70000,	! tonne s^-2 mm^-1
MP,NUXY,1,0.33,
MP,UVID,1,92b9668a-0c0d-489c-bf8b-177f5621ad2d

MP,EX,2,210000,	! tonne s^-2 mm^-1
MP,NUXY,2,0.3,
MP,UVID,2,75ec716d-1076-4124-bb99-ec7ae7028403

/wb,mat,end                !  done sending materials
!************************* Model Summary ********************
!Solid,	hollow,	matid,	1
!Solid,	steel,	matid,	2
!************************* End Model Summary ********************
! get the diagonal of the bounding box. Needed later for other things
*get,_xmin,node,,mnloc,x
*get,_ymin,node,,mnloc,y
*get,_zmin,node,,mnloc,z
*get,_xmax,node,,mxloc,x
*get,_ymax,node,,mxloc,y
*get,_zmax,node,,mxloc,z
_ASMDIAG=(_xmax-_xmin)*(_xmax-_xmin)+(_ymax-_ymin)*(_ymax-_ymin)+(_zmax-_zmin)*(_zmax-_zmin)
_ASMDIAG=SQRT(_ASMDIAG)
/wb,contact,start          !  starting to send contact
/com,*********** Create Contact "Contact Region" ***********
/com,            Real Constant Set For Above Contact Is 4 & 3 
*set,tid,4
*set,cid,3
r,tid
r,cid
et,tid,170
et,cid,174
eblock,10,,,86
(15i9)
     7183        4        4        4        0     6944     6889     6844     6842    11756    11616    11495    11754
     7184        4        4        4        0     6775     6944     6842     6774    11751    11754    11490    11330
     7185        4        4        4        0     6942     6769     6768     6886    11749    11324    11611    11747
     7186        4        4        4        0     6940     6942     6886     6884    11744    11747    11606    11742
     7187        4        4        4        0     6938     6940     6884     6882    11739    11742    11601    11737
     7188        4        4        4        0     6936     6938     6882     6879    11734    11737    11596    11732
     7189        4        4        4        0     6933     6936     6879     6878    11729    11732    11593    11724
     7190        4        4        4        0     6928     6930     6878     6876    11716    11719    11588    11714
     7191        4        4        4        0     6926     6928     6876     6874    11711    11714    11583    11709
     7192        4        4        4        0     6924     6926     6874     6872    11706    11709    11578    11704
     7193        4        4        4        0     6922     6924     6872     6870    11701    11704    11573    11699
     7194        4        4        4        0     6762     6922     6870     6763    11696    11699    11568    11315
     7195        4        4        4        0     6920     6757     6756     6868    11694    11304    11564    11692
     7196        4        4        4        0     6918     6920     6868     6866    11689    11692    11559    11687
     7197        4        4        4        0     6915     6918     6866     6864    11684    11687    11554    11679
     7198        4        4        4        0     6912     6914     6915     6864    11676    11681    11679    11674
     7199        4        4        4        0     6910     6912     6864     6862    11671    11674    11549    11669
     7200        4        4        4        0     6908     6910     6862     6860    11666    11669    11544    11664
     7201        4        4        4        0     6906     6908     6860     6858    11661    11664    11539    11659
     7202        4        4        4        0     6904     6906     6858     6856    11656    11659    11534    11654
! ... 67 like lines cut
eblock,10,,,86
(15i9)
     7269        3        3        3        0     6944     6889     6844     6842    11756    11616    11495    11754
     7270        3        3        3        0     6775     6944     6842     6774    11751    11754    11490    11330
     7271        3        3        3        0     6942     6769     6768     6886    11749    11324    11611    11747
     7272        3        3        3        0     6940     6942     6886     6884    11744    11747    11606    11742
     7273        3        3        3        0     6938     6940     6884     6882    11739    11742    11601    11737
     7274        3        3        3        0     6936     6938     6882     6879    11734    11737    11596    11732
     7275        3        3        3        0     6933     6936     6879     6878    11729    11732    11593    11724
     7276        3        3        3        0     6928     6930     6878     6876    11716    11719    11588    11714
     7277        3        3        3        0     6926     6928     6876     6874    11711    11714    11583    11709
     7278        3        3        3        0     6924     6926     6874     6872    11706    11709    11578    11704
     7279        3        3        3        0     6922     6924     6872     6870    11701    11704    11573    11699
     7280        3        3        3        0     6762     6922     6870     6763    11696    11699    11568    11315
     7281        3        3        3        0     6920     6757     6756     6868    11694    11304    11564    11692
     7282        3        3        3        0     6918     6920     6868     6866    11689    11692    11559    11687
     7283        3        3        3        0     6915     6918     6866     6864    11684    11687    11554    11679
     7284        3        3        3        0     6912     6914     6915     6864    11676    11681    11679    11674
     7285        3        3        3        0     6910     6912     6864     6862    11671    11674    11549    11669
     7286        3        3        3        0     6908     6910     6862     6860    11666    11669    11544    11664
     7287        3        3        3        0     6906     6908     6860     6858    11661    11664    11539    11659
     7288        3        3        3        0     6904     6906     6858     6856    11656    11659    11534    11654
! ... 67 like lines cut
eblock,10,,,70
(15i9)
     7355        3        4        3        0      169      116       85       81     1833     2097     2018     2204
     7356        3        4        3        0      167      169       81       82     1832     2204     2010     2200
     7357        3        4        3        0      165      167       82      112     1831     2200     2093     2196
     7358        3        4        3        0      163      165      112      111     1830     2196     2090     2192
     7359        3        4        3        0      161      163      111      109     1829     2192     2085     2188
     7360        3        4        3        0      159      161      109      107     1828     2188     2080     2184
     7361        3        4        3        0      157      159      107      105     1827     2184     2075     2180
     7362        3        4        3        0      155      157      105       35     1826     2180     2070     2176
     7363        3        4        3        0      153      155       35       27     1825     2176     1899     2172
     7364        3        4        3        0      151      153       27       28     1824     2172     1887     2168
     7365        3        4        3        0      149      151       28       30     1823     2168     1890     2164
     7366        3        4        3        0      147      149       30      103     1822     2164     2068     2160
     7367        3        4        3        0      145      147      103      100     1821     2160     2063     2156
     7368        3        4        3        0      143      145      100       99     1820     2156     2060     2152
     7369        3        4        3        0      141      143       99       97     1819     2152     2055     2148
     7370        3        4        3        0      139      141       97       95     1818     2148     2050     2144
     7371        3        4        3        0      137      139       95       23     1817     2144     2045     2140
     7372        3        4        3        0      135      137       23       15     1816     2140     1879     2136
     7373        3        4        3        0      133      135       15       16     1815     2136     1867     2132
     7374        3        4        3        0      131      133       16       18     1814     2132     1870     2128
! ... 51 like lines cut
eblock,10,,,70
(15i9)
     7425        4        3        4        0      169      116       85       81     1833     2097     2018     2204
     7426        4        3        4        0      167      169       81       82     1832     2204     2010     2200
     7427        4        3        4        0      165      167       82      112     1831     2200     2093     2196
     7428        4        3        4        0      163      165      112      111     1830     2196     2090     2192
     7429        4        3        4        0      161      163      111      109     1829     2192     2085     2188
     7430        4        3        4        0      159      161      109      107     1828     2188     2080     2184
     7431        4        3        4        0      157      159      107      105     1827     2184     2075     2180
     7432        4        3        4        0      155      157      105       35     1826     2180     2070     2176
     7433        4        3        4        0      153      155       35       27     1825     2176     1899     2172
     7434        4        3        4        0      151      153       27       28     1824     2172     1887     2168
     7435        4        3        4        0      149      151       28       30     1823     2168     1890     2164
     7436        4        3        4        0      147      149       30      103     1822     2164     2068     2160
     7437        4        3        4        0      145      147      103      100     1821     2160     2063     2156
     7438        4        3        4        0      143      145      100       99     1820     2156     2060     2152
     7439        4        3        4        0      141      143       99       97     1819     2152     2055     2148
     7440        4        3        4        0      139      141       97       95     1818     2148     2050     2144
     7441        4        3        4        0      137      139       95       23     1817     2144     2045     2140
     7442        4        3        4        0      135      137       23       15     1816     2140     1879     2136
     7443        4        3        4        0      133      135       15       16     1815     2136     1867     2132
     7444        4        3        4        0      131      133       16       18     1814     2132     1870     2128
! ... 51 like lines cut
keyo,cid,8,2               ! auto create asymmetric contact (from Program Controlled setting)
keyo,cid,10,0              ! adjust contact stiffness each NR iteration (from Program Controlled setting)
keyo,cid,12,5              ! bonded always
keyo,cid,18,1              ! small sliding turned on by application
keyo,cid,2,0               ! augmented Lagrange (from Program Controlled setting)
keyo,cid,4,0               ! on Gauss point (from Program Controlled setting)
keyo,cid,9,1               ! ignore initial gaps/penetration
keyo,cid,7,0               ! No Prediction
rmod,tid,3,10.      ! FKN
rmod,tid,5,0.       ! ICONT
rmod,tid,6,0.       ! PINB
rmod,tid,10,0.      ! CNOF
rmod,tid,12,0.      ! FKT
rmod,tid,36,95      ! WB DSID
rmod,cid,3,10.      ! FKN
rmod,cid,5,0.       ! ICONT
rmod,cid,6,0.       ! PINB
rmod,cid,10,0.      ! CNOF
rmod,cid,12,0.      ! FKT
rmod,cid,36,95      ! WB DSID
nsel,all
esel,all
/wb,contact,end            !  done creating contacts
/golist
/wb,load,start             !  starting to send loads
/com,*********** Fixed Supports ***********
CMBLOCK,_FIXEDSU,NODE,      437
(8i10)
     11004     11005     11006     11007     11008     11009     11010     11011
     11012     11013     11014     11015     11016     11017     11018     11019
     11020     11021     11022     11023     11024     11025     11026     11027
     11028     11029     11030     11031     11032     11033     11034     11035
     11036     11037     11038     11039     11040     11041     11042     11043
     11044     11045     11046     11047     11048     11049     11050     11051
     11052     11053     11054     11055     11056     11057     11058     11059
     11060     11061     11062     11063     11064     11065     11066     11067
     11068     11069     11070     11071     11072     11073     11074     11075
     11076     11077     11078     11079     11080     11081     11082     11083
     11084     11085     11086     11087     11088     11089     11090     11091
     11092     11093     11094     11095     11096     11097     11098     11099
     11100     11101     11102     11103     11104     11105     11106     11107
     11108     11109     11110     11111     11112     11113     11114     11115
     11116     11117     11118     11119     11120     11121     11122     11123
     11124     11125     11126     11127     11128     11129     11130     11131
     11132     11133     11134     11135     11136     11137     11138     11139
     11140     11141     11142     11143     11144     11145     11146     11147
     11148     11149     11150     11151     11152     11153     11154     11155
     11156     11197     11198     11199     11200     11201     11202     11203
! ... 35 like lines cut
cmsel,s,_FIXEDSU
d,all,all
nsel,all
/com,*********** Create Remote Point "Internal Remote Point" ***********
! -------- Remote Point Used by "Remote Force" --------
*set,tid,6
*set,cid,5
et,cid,174
et,tid,170
keyo,tid,2,1               ! Don't fix the pilot node
keyo,tid,4,111111
keyo,cid,12,5              ! Bonded Contact 
keyo,cid,4,1               ! Deformable RBE3 style load
keyo,cid,2,2               ! MPC style contact
eblock,10,,,132
(15i9)
     7495        5        5        5        0     7024     6947     6892     6888    11188    11760    11621    11915
     7496        5        5        5        0     7022     7024     6888     6889    11189    11915    11613    11911
     7497        5        5        5        0     7020     7022     6889     6944    11190    11911    11756    11907
     7498        5        5        5        0     7018     7020     6944     6775    11191    11907    11751    11903
     7499        5        5        5        0     7016     7018     6775     6767    11192    11903    11333    11899
     7500        5        5        5        0     7014     7016     6767     6769    11193    11899    11321    11895
     7501        5        5        5        0     7012     7014     6769     6942    11194    11895    11749    11891
     7502        5        5        5        0     7010     7012     6942     6940    11195    11891    11744    11887
     7503        5        5        5        0     7008     7010     6940     6938    11196    11887    11739    11883
     7504        5        5        5        0     7006     7008     6938     6936    11157    11883    11734    11879
     7505        5        5        5        0     7004     7006     6936     6933    11158    11879    11729    11875
     7506        5        5        5        0     7002     7004     6933     6932    11159    11875    11726    11871
     7507        5        5        5        0     7000     7002     6932     6930    11160    11871    11721    11867
     7508        5        5        5        0     6998     7000     6930     6928    11161    11867    11716    11863
     7509        5        5        5        0     6996     6998     6928     6926    11162    11863    11711    11859
     7510        5        5        5        0     6994     6996     6926     6924    11163    11859    11706    11855
     7511        5        5        5        0     6992     6994     6924     6922    11164    11855    11701    11851
     7512        5        5        5        0     6990     6992     6922     6762    11165    11851    11696    11847
     7513        5        5        5        0     6988     6990     6762     6754    11166    11847    11310    11843
     7514        5        5        5        0     6986     6988     6754     6755    11167    11843    11298    11839
! ... 113 like lines cut
*set,_npilot,23677
_npilot75=_npilot
type,tid
mat ,cid
real,cid
tshape,pilo
en,7627,_npilot
tshape
/com,*********** Create Remote Point "Internal Remote Point 2" ***********
! -------- Remote Point Used by "Remote Force 2" --------
*set,tid,8
*set,cid,7
et,cid,174
et,tid,170
keyo,tid,2,1               ! Don't fix the pilot node
keyo,tid,4,111111
keyo,cid,12,5              ! Bonded Contact 
keyo,cid,4,1               ! Deformable RBE3 style load
keyo,cid,2,2               ! MPC style contact
eblock,10,,,70
(15i9)
     7628        7        7        7        0     1759     1785     1741     1743     1805     6719     6619     6666
     7629        7        7        7        0     1785     1784     1742     1741     1804     6717     6614     6719
     7630        7        7        7        0     1784     1783     1757     1742     1803     6715     6663     6717
     7631        7        7        7        0     1783     1782     1756     1757     1802     6713     6662     6715
     7632        7        7        7        0     1782     1781     1755     1756     1801     6711     6659     6713
     7633        7        7        7        0     1781     1780     1754     1755     1800     6709     6656     6711
     7634        7        7        7        0     1780     1779     1753     1754     1799     6707     6653     6709
     7635        7        7        7        0     1779     1778     1718     1753     1798     6705     6650     6707
     7636        7        7        7        0     1778     1777     1714     1718     1797     6703     6547     6705
     7637        7        7        7        0     1777     1776     1715     1714     1796     6701     6539     6703
     7638        7        7        7        0     1776     1775     1717     1715     1795     6699     6541     6701
     7639        7        7        7        0     1775     1774     1752     1717     1794     6697     6648     6699
     7640        7        7        7        0     1774     1773     1751     1752     1793     6695     6646     6697
     7641        7        7        7        0     1773     1772     1750     1751     1792     6693     6644     6695
     7642        7        7        7        0     1772     1771     1749     1750     1791     6691     6641     6693
     7643        7        7        7        0     1771     1770     1748     1749     1790     6689     6638     6691
     7644        7        7        7        0     1770     1769     1712     1748     1789     6687     6635     6689
     7645        7        7        7        0     1769     1768     1708     1712     1788     6685     6534     6687
     7646        7        7        7        0     1768     1767     1709     1708     1787     6683     6526     6685
     7647        7        7        7        0     1767     1766     1711     1709     1786     6681     6528     6683
! ... 51 like lines cut
*set,_npilot,23678
_npilot78=_npilot
type,tid
mat ,cid
real,cid
tshape,pilo
en,7698,_npilot
tshape
/com,*********** Construct Remote Force ***********
/com,*********** Construct Remote Force ***********
/gst,on,on
fini
*get,_numnode,node,0,count
*get,_numelem,elem,0,count
*get, _MAXELEMNUM, elem, 0, NUM, MAX
*get, _MAXNODENUM, node, 0, NUM, MAX
*get, _MAXELEMTYPE, etyp, 0, NUM, MAX
*get, _MAXREALCONST, rcon, 0, NUM, MAX
/go
/wb,load,end               !  done creating loads
/com,--- Number of total nodes = %_numnode%
/com,--- Number of contact elements = 514
/com,--- Number of spring elements = 0
/com,--- Number of bearing elements = 0
/com,--- Number of solid elements = 5096
/com,--- Number of condensed parts = 0
/com,--- Number of total elements = %_numelem%
*get,_wallbsol,active,,time,wall
/com,****************************************************************************
/com,*************************    SOLUTION       ********************************
/com,****************************************************************************
/solu
antype,0                   ! static analysis
_thickRatio=  1     ! Ratio of thick parts in the model
eqsl,pcg,1e-8,,,,,,1
cntr,print,1               ! print out contact info and also make no initial contact an error
dmpoption,emat,no             ! Don't combine emat file for DANSYS
dmpoption,esav,no             ! Don't combine esav file for DANSYS
nldiag,cont,iter           ! print out contact info each equilibrium iteration
rescontrol,,none                 ! Do not keep any restart files
/com,****************************************************
/com,******************* SOLVE FOR LS 1 OF 1 ****************
nsel,s,node,,23677
f,all,fx,200000.
f,all,fy,0.
f,all,fz,0.
nsel,s,node,,23678
f,all,fx,100000.
f,all,fy,0.
f,all,fz,0.
nsel,all
/nopr
/gopr
nsub,1,1,1
time,1.
outres,erase
outres,all,none
outres,nsol,all,
outres,rsol,all
outres,eangl,all
outres,etmp,all
outres,veng,all
outres,strs,all,
outres,epel,all,
outres,eppl,all,
outres,cont,all,
! *********** WB SOLVE COMMAND ***********
! check interactive state
*get,ANSINTER_,active,,int
*if,ANSINTER_,ne,0,then
/eof
*endif
solve
/com *************** Write FE CONNECTORS ********* 
CEWRITE,file,ce,,INTE
/com,****************************************************
/com,*************** FINISHED SOLVE FOR LS 1 *************
*get,_wallasol,active,,time,wall
/nopr
*get,_numnode,node,0,count
*get,_numelem,elem,0,count
*get, _MAXELEMNUM, elem, 0, NUM, MAX
*get, _MAXNODENUM, node, 0, NUM, MAX,,,INTERNAL
*get, _MAXELEMTYPE, etyp, 0, NUM, MAX
*get, _MAXREALCONST, rcon, 0, NUM, MAX
*get,_NSOLTHREADS,active,0,ntfs
*get,_NSOLPROCESSES,active,0,npfs
/gopr
*get,_PCGITER,active,,solu,cgiter
/post1
xmlo,ENCODING,ISO-8859-1
xmlo,parm
/xml,parm,xml
fini
/gopr
*get,_walldone,active,,time,wall
_preptime=(_wallbsol-_wallstrt)*3600
_solvtime=(_wallasol-_wallbsol)*3600
_posttime=(_walldone-_wallasol)*3600
_totaltim=(_walldone-_wallstrt)*3600
*get,_dlbratio,active,0,solu,dlbr
*get,_combtime,active,0,solu,comb
*get,_ssmode,active,0,solu,ssmm
*get,_ndofs,active,0,solu,ndof
*get,_sol_end_time,active,0,set,time
*if,_sol_end_time,eq,1.000000,then
/fclean				!clean distributed files
*endif
/com,--- Total number of nodes = %_numnode%
/com,--- Total number of elements = %_numelem%
/com,--- Element load balance ratio = %_dlbratio%
/com,--- Time to combine distributed files = %_combtime%
/com,--- Sparse memory mode = %_ssmode%
/com,--- Number of DOF = %_ndofs%
/wb,file,end               ! done with WB generated input
