/batch
/config,noeldb,1     ! force off writing results to database
*get,_wallstrt,active,,time,wall
! ANSYS input file written by Workbench version 2022 R2
! File used for geometry attach: C:\Users\Admin\PycharmProjects\Github\thesis_files\master thesisio\ansys\design1_files\dp5\SYS-4\DM\SYS-4.agdb
/title,design1--Static Structural (B5)
! ****** Begin Custom Load Command Snippet ******
/COM, ACT Extensions:
/COM,     LSDYNA, 2022.2
/COM,     5f463412-bd3e-484b-87e7-cbc0a665e474, wbex
/COM,/COM,     ANSYSMotion, 2022.2
/COM,     20180725-3f81-49eb-9f31-41364844c769, wbex
/COM,
! ****** End   Custom Load Command Snippet ******
*DIM,_wb_ProjectScratch_dir,string,248
_wb_ProjectScratch_dir(1) = 'C:\Users\Admin\PycharmProjects\Github\thesis_files\master thesisio\ansys\_ProjectScratch\Scr6279\'
*DIM,_wb_SolverFiles_dir,string,248
_wb_SolverFiles_dir(1) = 'C:\Users\Admin\PycharmProjects\Github\thesis_files\master thesisio\ansys\design1_files\dp5\SYS-4\MECH\'
*DIM,_wb_userfiles_dir,string,248
_wb_userfiles_dir(1) = 'C:\Users\Admin\PycharmProjects\Github\thesis_files\master thesisio\ansys\design1_files\user_files\'
/com,--- Data in consistent NMM units. See Solving Units in the help system for more information.
/units,MPA
/nopr
/wb,file,start              !  signify a WB generated input file
/prep7
! Turn off shape checking because checks already performed inside WB mesher.
! See help system for more information.
SHPP,OFF,,NOWARN
/nolist
etcon,set             ! allow ANSYS to choose best KEYOP's for 180x elements, resets any applicable keyopt to MAPDL defaults
/com,*********** Nodes for the whole assembly ***********
nblock,3,,18400
(1i9,3e20.9e3)
        1     7.944951030E+00    -1.200000000E+01    -1.200000000E+01
        2     7.944951030E+00    -1.200000000E+01    -4.000000000E+00
        3     7.944951030E+00    -1.200000000E+01     4.000000000E+00
        4     7.944951030E+00    -1.200000000E+01     1.200000000E+01
        5     7.953394124E+00    -4.000000000E+00    -1.200000000E+01
        6     7.953394124E+00    -4.000000000E+00    -4.000000000E+00
        7     7.953394124E+00    -4.000000000E+00     4.000000000E+00
        8     7.953394124E+00    -4.000000000E+00     1.200000000E+01
        9     7.961837217E+00     4.000000000E+00    -1.200000000E+01
       10     7.961837217E+00     4.000000000E+00    -4.000000000E+00
       11     7.961837217E+00     4.000000000E+00     4.000000000E+00
       12     7.961837217E+00     4.000000000E+00     1.200000000E+01
       13     7.970280311E+00     1.200000000E+01    -1.200000000E+01
       14     7.970280311E+00     1.200000000E+01    -4.000000000E+00
       15     7.970280311E+00     1.200000000E+01     4.000000000E+00
       16     7.970280311E+00     1.200000000E+01     1.200000000E+01
       17     1.588990206E+01    -1.200000000E+01    -1.200000000E+01
       18     1.588990206E+01    -1.200000000E+01    -4.000000000E+00
       19     1.588990206E+01    -1.200000000E+01     4.000000000E+00
       20     1.588990206E+01    -1.200000000E+01     1.200000000E+01
! ... 16709 like lines cut
/wb,elem,start            !  set before creation of elements
/com,*********** Elements for Body 1 "Solid" ***********
et,1,186
keyo,1,2,1          ! set full integration on SOLID186
eblock,19,solid,,3150
(19i9)
        1        1        1        1        0        0        0        0       20        0        1        1     3898     4524     4565     2500     4522     4523     4569
     4577    15522    16652     4578    12716    16648    16650    12717     4576    15521    16649    16723
        1        1        1        1        0        0        0        0       20        0        2        1     4565     4524     3898        2     4566     4525     3899
     4578    16652    15522     4577     4583    16654    15525     4582     4573    16722    16651    15519
        1        1        1        1        0        0        0        0       20        0        3        2     4566     4525     3899        3     4567     4526     3900
     4583    16654    15525     4582     4588    16656    15528     4587     4579    16724    16653    15523
        1        1        1        1        0        0        0        0       20        0        4        3     4567     4526     3900        4     4568     4527     3901
     4588    16656    15528     4587     4593    16657    15530     4592     4584    16725    16655    15526
        1        1        1        1        0        0        0        0       20        0        5        4     4568     4527     3901     2501     3001     3009     3010
     4593    16657    15530     4592    12720    13848    13865    12721     4591    13849    13866    13868
        1        1        1        1        0        0        0        0       20        0        6        1       17     3902     3898     2500     2496     4521     4522
     4575     4649    15520     4577    12707    12708    16647    12716     4576     4648    15533    15521
        1        1        1        1        0        0        0        0       20        0        7        1     3898     3902       17        2     3899     3903       18
     4577    15520     4649     4575     4582    15524     4653     4581     4573    15519    15531     4645
        1        1        1        1        0        0        0        0       20        0        8        2     3899     3903       18        3     3900     3904       19
     4582    15524     4653     4581     4587    15527     4657     4586     4579    15523    15534     4650
        1        1        1        1        0        0        0        0       20        0        9        3     3900     3904       19        4     3901     3905       20
     4587    15527     4657     4586     4592    15529     4661     4590     4584    15526    15536     4654
        1        1        1        1        0        0        0        0       20        0       10        4     3901     3905       20     2501     3010     3011     2505
     4592    15529     4661     4590    12721    13867    12733    12719     4591    13868    13870     4660
! ... 6281 like lines cut
!Material Id = {49233BB8-BC7D-4739-A4BB-3F7A5ABCFA0A}
/wb,elem,end               !  done creating elements
/com,*********** Send User Defined Coordinate System(s) ***********
local,12,0,0.,20.,0.,0.,0.,0.
local,13,0,0.,-20.,0.,0.,0.,0.
csys,0
toffst,273.15,  ! Temperature offset from absolute zero
/com,*********** Set Reference Temperature ***********
tref,22.
/wb,mat,start              !  starting to send materials
/com,*********** Send Materials ***********
MP,EX,1,210000,	! tonne s^-2 mm^-1
MP,NUXY,1,0.3,
MP,UVID,1,2b27657b-3701-4640-ae46-460b465c7321

/wb,mat,end                !  done sending materials
!************************* Model Summary ********************
!Solid,	structural steel new,	matid,	1
!************************* End Model Summary ********************
! get the diagonal of the bounding box. Needed later for other things
*get,_xmin,node,,mnloc,x
*get,_ymin,node,,mnloc,y
*get,_zmin,node,,mnloc,z
*get,_xmax,node,,mxloc,x
*get,_ymax,node,,mxloc,y
*get,_zmax,node,,mxloc,z
_ASMDIAG=(_xmax-_xmin)*(_xmax-_xmin)+(_ymax-_ymin)*(_ymax-_ymin)+(_zmax-_zmin)*(_zmax-_zmin)
_ASMDIAG=SQRT(_ASMDIAG)
/wb,contact,start          !  starting to send contact
/wb,contact,end            !  done creating contacts
/com,*********** Send Named Selection as Node Component ***********
CMBLOCK,LEFT_EDGE,NODE,       11
(8i10)
      3009      4523      4524      4525      4526      4527     13866     16649
     16651     16653     16655
/com,*********** Send Named Selection as Node Component ***********
CMBLOCK,RIGHT_EDGE,NODE,       11
(8i10)
      3135      4528      4529      4530      4531      4532     14117     16658
     16660     16662     16664
/com,*********** Send Named Selection as Node Component ***********
CMBLOCK,LOAD    ,NODE,       11
(8i10)
      3262      3733      3734      3735      3736      3737     14370     15222
     15224     15226     15228
/golist
/wb,load,start             !  starting to send loads
/com,*********** Fixed Supports ***********
CMBLOCK,_FIXEDSU,NODE,       11
(8i10)
      3009      4523      4524      4525      4526      4527     13866     16649
     16651     16653     16655
cmsel,s,_FIXEDSU
d,all,all
nsel,all
/com,******* Constant Zero Displacement Y *******
CMBLOCK,_DISPZEROUY,NODE,       11
(8i10)
      3135      4528      4529      4530      4531      4532     14117     16658
     16660     16662     16664
cmsel,s,_DISPZEROUY
d,all,uy,0
nsel,all
/com,******* Constant Zero Displacement Z *******
CMBLOCK,_DISPZEROUZ,NODE,       11
(8i10)
      3135      4528      4529      4530      4531      4532     14117     16658
     16660     16662     16664
cmsel,s,_DISPZEROUZ
d,all,uz,0
nsel,all
/com,*********** Define Force Using Surface Effect Elements ***********
local,14,0,0.,0.,0.,0.,0.,0.
csys,0
et,2,156
keyop,2,5,1         !  No orientation node
eblock,10,,,5
(15i9)
     5721        2        2        2       14     3734     3733    15222
     5722        2        2        2       14     3734     3735    15224
     5723        2        2        2       14     3735     3736    15226
     5724        2        2        2       14     3736     3737    15228
     5725        2        2        2       14     3737     3262    14370
-1
esel,s,type,,2
keyop,2,2,1                ! Apply load in local coordinate system
keyop,2,7,1                ! Use original area so load is constant in large deformation
esel,all
/gst,on,on
fini
*get,_numnode,node,0,count
*get,_numelem,elem,0,count
*get, _MAXELEMNUM, elem, 0, NUM, MAX
*get, _MAXNODENUM, node, 0, NUM, MAX
*get, _MAXELEMTYPE, etyp, 0, NUM, MAX
*get, _MAXREALCONST, rcon, 0, NUM, MAX
/go
/wb,load,end               !  done creating loads
/com,--- Number of total nodes = %_numnode%
/com,--- Number of contact elements = 5
/com,--- Number of spring elements = 0
/com,--- Number of bearing elements = 0
/com,--- Number of solid elements = 3150
/com,--- Number of condensed parts = 0
/com,--- Number of total elements = %_numelem%
*get,_wallbsol,active,,time,wall
/com,****************************************************************************
/com,*************************    SOLUTION       ********************************
/com,****************************************************************************
/solu
antype,0                   ! static analysis
_thickRatio=  1     ! Ratio of thick parts in the model
eqsl,pcg,1e-8,,,,,,1
cntr,print,1               ! print out contact info and also make no initial contact an error
dmpoption,emat,no             ! Don't combine emat file for DANSYS
dmpoption,esav,no             ! Don't combine esav file for DANSYS
nldiag,cont,iter           ! print out contact info each equilibrium iteration
rescontrol,,none                 ! Do not keep any restart files
/com,****************************************************
/com,******************* SOLVE FOR LS 1 OF 1 ****************
esel,s,type,,2
nsle
sfe,all,1,pres,1,0.
sfe,all,2,pres,1,-125.
sfe,all,3,pres,1,0.
nsel,all
esel,all
/nopr
/gopr
nsub,1,1,1
time,1.
outres,erase
outres,all,none
outres,nsol,all,
outres,rsol,all
outres,eangl,all
outres,etmp,all
outres,veng,all
outres,strs,all,
outres,epel,all,
outres,eppl,all,
outres,cont,all,
! *********** WB SOLVE COMMAND ***********
! check interactive state
*get,ANSINTER_,active,,int
*if,ANSINTER_,ne,0,then
/eof
*endif
solve
/com *************** Write FE CONNECTORS ********* 
CEWRITE,file,ce,,INTE
/com,****************************************************
/com,*************** FINISHED SOLVE FOR LS 1 *************
*get,_wallasol,active,,time,wall
/nopr
*get,_numnode,node,0,count
*get,_numelem,elem,0,count
*get, _MAXELEMNUM, elem, 0, NUM, MAX
*get, _MAXNODENUM, node, 0, NUM, MAX,,,INTERNAL
*get, _MAXELEMTYPE, etyp, 0, NUM, MAX
*get, _MAXREALCONST, rcon, 0, NUM, MAX
*get,_NSOLTHREADS,active,0,ntfs
*get,_NSOLPROCESSES,active,0,npfs
/gopr
*get,_PCGITER,active,,solu,cgiter
/post1
xmlo,ENCODING,ISO-8859-1
xmlo,parm
/xml,parm,xml
fini
/gopr
*get,_walldone,active,,time,wall
_preptime=(_wallbsol-_wallstrt)*3600
_solvtime=(_wallasol-_wallbsol)*3600
_posttime=(_walldone-_wallasol)*3600
_totaltim=(_walldone-_wallstrt)*3600
*get,_dlbratio,active,0,solu,dlbr
*get,_combtime,active,0,solu,comb
*get,_ssmode,active,0,solu,ssmm
*get,_ndofs,active,0,solu,ndof
*get,_sol_end_time,active,0,set,time
*if,_sol_end_time,eq,1.000000,then
/fclean				!clean distributed files
*endif
/com,--- Total number of nodes = %_numnode%
/com,--- Total number of elements = %_numelem%
/com,--- Element load balance ratio = %_dlbratio%
/com,--- Time to combine distributed files = %_combtime%
/com,--- Sparse memory mode = %_ssmode%
/com,--- Number of DOF = %_ndofs%
/wb,file,end               ! done with WB generated input
