/batch
/config,noeldb,1     ! force off writing results to database
*get,_wallstrt,active,,time,wall
! ANSYS input file written by Workbench version 2022 R2
! File used for geometry attach: C:\Users\Admin\PycharmProjects\Github\thesis_files\master thesisio\ansys\design1_files\dp0\SYS-2\DM\SYS-2.agdb
/title,design1--Static Structural (B5)
! ****** Begin Custom Load Command Snippet ******
/COM, ACT Extensions:
/COM,     LSDYNA, 2022.2
/COM,     5f463412-bd3e-484b-87e7-cbc0a665e474, wbex
/COM,/COM,     ANSYSMotion, 2022.2
/COM,     20180725-3f81-49eb-9f31-41364844c769, wbex
/COM,
! ****** End   Custom Load Command Snippet ******
*DIM,_wb_ProjectScratch_dir,string,248
_wb_ProjectScratch_dir(1) = 'C:\Users\Admin\PycharmProjects\Github\thesis_files\master thesisio\ansys\_ProjectScratch\ScrD543\'
*DIM,_wb_SolverFiles_dir,string,248
_wb_SolverFiles_dir(1) = 'C:\Users\Admin\PycharmProjects\Github\thesis_files\master thesisio\ansys\design1_files\dp0\SYS-2\MECH\'
*DIM,_wb_userfiles_dir,string,248
_wb_userfiles_dir(1) = 'C:\Users\Admin\PycharmProjects\Github\thesis_files\master thesisio\ansys\design1_files\user_files\'
/com,--- Data in consistent NMM units. See Solving Units in the help system for more information.
/units,MPA
/nopr
/wb,file,start              !  signify a WB generated input file
/prep7
! Turn off shape checking because checks already performed inside WB mesher.
! See help system for more information.
SHPP,OFF,,NOWARN
/nolist
etcon,set             ! allow ANSYS to choose best KEYOP's for 180x elements, resets any applicable keyopt to MAPDL defaults
/com,*********** Nodes for the whole assembly ***********
nblock,3,,9971
(1i9,3e20.9e3)
        1     1.000000000E+01     1.000000000E+01     1.000000000E+01
        2     1.000000000E+01     0.000000000E+00     1.000000000E+01
        3     1.000000000E+01    -1.000000000E+01     1.000000000E+01
        4     0.000000000E+00     1.000000000E+01     1.000000000E+01
        5     0.000000000E+00     0.000000000E+00     1.000000000E+01
        6     0.000000000E+00    -1.000000000E+01     1.000000000E+01
        7    -1.000000000E+01     1.000000000E+01     1.000000000E+01
        8    -1.000000000E+01     0.000000000E+00     1.000000000E+01
        9    -1.000000000E+01    -1.000000000E+01     1.000000000E+01
       10     1.000000000E+01     1.000000000E+01     2.000000000E+01
       11     1.000000000E+01     0.000000000E+00     2.000000000E+01
       12     1.000000000E+01    -1.000000000E+01     2.000000000E+01
       13     0.000000000E+00     1.000000000E+01     2.000000000E+01
       14     0.000000000E+00     0.000000000E+00     2.000000000E+01
       15     0.000000000E+00    -1.000000000E+01     2.000000000E+01
       16    -1.000000000E+01     1.000000000E+01     2.000000000E+01
       17    -1.000000000E+01     0.000000000E+00     2.000000000E+01
       18    -1.000000000E+01    -1.000000000E+01     2.000000000E+01
       19     1.000000000E+01     1.000000000E+01     3.000000000E+01
       20     1.000000000E+01     0.000000000E+00     3.000000000E+01
! ... 9046 like lines cut
/com,*********** Nodes for all Remote Points ***********
nblock,3
(1i9,3e20.9e3)
     9066     0.000000000E+00     1.999999955E+01     5.000000000E+02
-1
/wb,elem,start            !  set before creation of elements
/com,*********** Elements for Body 1 "Solid" ***********
et,1,186
keyo,1,2,1          ! set full integration on SOLID186
eblock,19,solid,,1600
(19i9)
        1        1        1        1        0        0        0        0       20        0        1        1     2296     2495     2514     1188     2493     2494     2523
     2530     8721     9021     2531     6496     9017     9019     6497     2529     8720     9018     9051
        1        1        1        1        0        0        0        0       20        0        2        1     2514     2495     2296        2     2517     2496     2197
     2531     9021     8721     2530     2536     9023     8522     2535     2526     9050     9020     8521
        1        1        1        1        0        0        0        0       20        0        3        2     2517     2496     2197        3     2520     2497     2098
     2536     9023     8522     2535     2541     9024     8323     2540     2532     9058     9022     8322
        1        1        1        1        0        0        0        0       20        0        4        3     2520     2497     2098     1189     1486     1492     1493
     2541     9024     8323     2540     6500     7195     7208     6501     2539     7196     7209     7211
        1        1        1        1        0        0        0        0       20        0        5        1       10     2297     2296     1188     1185     2492     2493
     2528     2572     8719     2530     6489     6490     9016     6496     2529     2571     8723     8720
        1        1        1        1        0        0        0        0       20        0        6        1     2296     2297       10        2     2197     2198       11
     2530     8719     2572     2528     2535     8520     2576     2534     2526     8521     8524     2568
        1        1        1        1        0        0        0        0       20        0        7        2     2197     2198       11        3     2098     2099       12
     2535     8520     2576     2534     2540     8321     2580     2538     2532     8322     8325     2573
        1        1        1        1        0        0        0        0       20        0        8        3     2098     2099       12     1189     1493     1494     1192
     2540     8321     2580     2538     6501     7210     6510     6499     2539     7211     7213     2579
        1        1        1        1        0        0        0        0       20        0        9       10       19     2298     2297     1185     1182     2491     2492
     2570     2605     8722     2572     6482     6483     9015     6490     2571     2604     8725     8723
        1        1        1        1        0        0        0        0       20        0       10       10     2297     2298       19       11     2198     2199       20
     2572     8722     2605     2570     2576     8523     2609     2575     2568     8524     8526     2601
! ... 3181 like lines cut
!Material Id = {D426EB8F-EFDA-4339-8C8F-7B44AF7067A8}
/wb,elem,end               !  done creating elements
/com,*********** Send User Defined Coordinate System(s) ***********
local,12,0,0.,20.,0.,0.,0.,0.
local,13,0,0.,-20.,0.,0.,0.,0.
local,14,0,0.,19.9999995529652,500.,0.,0.,0.
csys,0
toffst,273.15,  ! Temperature offset from absolute zero
/com,*********** Set Reference Temperature ***********
tref,22.
/wb,mat,start              !  starting to send materials
/com,*********** Send Materials ***********
MP,EX,1,200000,	! tonne s^-2 mm^-1
MP,NUXY,1,0.3,


TB,PLAS,1,1,22,MISO
TBTEMP,22
TBPT,,0,250
TBPT,,0.00199,250.8
TBPT,,0.00224,255.1
TBPT,,0.00251,259.4
TBPT,,0.00282,263.7
TBPT,,0.00315,268
TBPT,,0.00352,272.3
TBPT,,0.00393,276.7
TBPT,,0.00437,281
TBPT,,0.00485,285.4
TBPT,,0.00538,289.8
TBPT,,0.00596,294.2
TBPT,,0.00765,305.3
TBPT,,0.00973,316.6
TBPT,,0.01536,339.7
TBPT,,0.02355,364.1
TBPT,,0.03516,390.2
TBPT,,0.05123,418.7
TBPT,,0.07296,450.7
TBPT,,0.10169,487.2
TBPT,,0.11913,507.7
TBPT,,0.13885,529.9
MP,UVID,1,7f9c4e07-5538-4b7e-b343-b3625677849e

/wb,mat,end                !  done sending materials
!************************* Model Summary ********************
!Solid,	non lina,	matid,	1
!************************* End Model Summary ********************
! get the diagonal of the bounding box. Needed later for other things
*get,_xmin,node,,mnloc,x
*get,_ymin,node,,mnloc,y
*get,_zmin,node,,mnloc,z
*get,_xmax,node,,mxloc,x
*get,_ymax,node,,mxloc,y
*get,_zmax,node,,mxloc,z
_ASMDIAG=(_xmax-_xmin)*(_xmax-_xmin)+(_ymax-_ymin)*(_ymax-_ymin)+(_zmax-_zmin)*(_zmax-_zmin)
_ASMDIAG=SQRT(_ASMDIAG)
/wb,contact,start          !  starting to send contact
/wb,contact,end            !  done creating contacts
CMBLOCK,SELECTION,NODE,        1
(8i10)
      1040
/golist
/wb,load,start             !  starting to send loads
/com,*********** Fixed Supports ***********
CMBLOCK,_FIXEDSU,NODE,        9
(8i10)
      1486      1487      1488      1492      1593      7194      7195      7197
      7199
cmsel,s,_FIXEDSU
d,all,all
nsel,all
/com,******* Constant Zero Displacement X *******
CMBLOCK,_DISPZEROUX,NODE,        9
(8i10)
      1489      1490      1491      1592      1693      7201      7202      7204
      7206
cmsel,s,_DISPZEROUX
d,all,ux,0
nsel,all
/com,******* Constant Zero Displacement Y *******
CMBLOCK,_DISPZEROUY,NODE,        9
(8i10)
      1489      1490      1491      1592      1693      7201      7202      7204
      7206
cmsel,s,_DISPZEROUY
d,all,uy,0
nsel,all
/com,*********** Create Remote Point "Remote Point" ***********
*set,tid,3
*set,cid,2
et,cid,174
et,tid,170
keyo,tid,2,1               ! Don't fix the pilot node
keyo,tid,4,0               ! Activate all DOF's due to large deformation
keyo,cid,12,5              ! Bonded Contact 
keyo,cid,4,1               ! Deformable RBE3 style load
keyo,cid,2,2               ! MPC style contact
eblock,10,,,400
(15i9)
     3234        2        2        2        0     2523     1188     2493     2494     6497     6496     9017     9019
     3235        2        2        2        0     1188     1185     2492     2493     6489     6490     9016     6496
     3236        2        2        2        0     1185     1182     2491     2492     6482     6483     9015     6490
     3237        2        2        2        0     1182     1179     2490     2491     6475     6476     9014     6483
     3238        2        2        2        0     1179     1176     2489     2490     6468     6469     9013     6476
     3239        2        2        2        0     1176     1173     2488     2489     6461     6462     9012     6469
     3240        2        2        2        0     1173     1170     2487     2488     6454     6455     9011     6462
     3241        2        2        2        0     1170     1167     2486     2487     6447     6448     9010     6455
     3242        2        2        2        0     1167     1164     2485     2486     6440     6441     9009     6448
     3243        2        2        2        0     1164     1161     2484     2485     6433     6434     9008     6441
     3244        2        2        2        0     1161     1158     2483     2484     6426     6427     9007     6434
     3245        2        2        2        0     1158     1155     2482     2483     6419     6420     9006     6427
     3246        2        2        2        0     1155     1152     2481     2482     6412     6413     9005     6420
     3247        2        2        2        0     1152     1149     2480     2481     6405     6406     9004     6413
     3248        2        2        2        0     1149     1146     2479     2480     6398     6399     9003     6406
     3249        2        2        2        0     1146     1143     2478     2479     6391     6392     9002     6399
     3250        2        2        2        0     1143     1140     2477     2478     6384     6385     9001     6392
     3251        2        2        2        0     1140     1137     2476     2477     6377     6378     9000     6385
     3252        2        2        2        0     1137     1134     2475     2476     6370     6371     8999     6378
     3253        2        2        2        0     1134     1131     2474     2475     6363     6364     8998     6371
! ... 381 like lines cut
*set,_npilot,9066
_npilot116=_npilot
type,tid
mat ,cid
real,cid
tshape,pilo
en,3634,_npilot
tshape
/com,*********** Construct Remote Force ***********

*DIM,_loadvari114x,TABLE,3,1,1,TIME
! Time values
*TAXIS,_loadvari114x(1),1,0.,1.,2.
! Load values
_loadvari114x(1,1,1) = 0.
_loadvari114x(2,1,1) = 0.
_loadvari114x(3,1,1) = 0.



*DIM,_loadvari114y,TABLE,3,1,1,TIME
! Time values
*TAXIS,_loadvari114y(1),1,0.,1.,2.
! Load values
_loadvari114y(1,1,1) = 0.
_loadvari114y(2,1,1) = -40000.
_loadvari114y(3,1,1) = 0.



*DIM,_loadvari114z,TABLE,3,1,1,TIME
! Time values
*TAXIS,_loadvari114z(1),1,0.,1.,2.
! Load values
_loadvari114z(1,1,1) = 0.
_loadvari114z(2,1,1) = 0.
_loadvari114z(3,1,1) = 0.


tblist
/gst,on,on
fini
*get,_numnode,node,0,count
*get,_numelem,elem,0,count
*get, _MAXELEMNUM, elem, 0, NUM, MAX
*get, _MAXNODENUM, node, 0, NUM, MAX
*get, _MAXELEMTYPE, etyp, 0, NUM, MAX
*get, _MAXREALCONST, rcon, 0, NUM, MAX
/go
/wb,load,end               !  done creating loads
/com,--- Number of total nodes = %_numnode%
/com,--- Number of contact elements = 400
/com,--- Number of spring elements = 0
/com,--- Number of bearing elements = 0
/com,--- Number of solid elements = 1600
/com,--- Number of condensed parts = 0
/com,--- Number of total elements = %_numelem%
*get,_wallbsol,active,,time,wall
/com,****************************************************************************
/com,*************************    SOLUTION       ********************************
/com,****************************************************************************
/solu
antype,0                   ! static analysis
nlgeom,on                  ! Turn on Large Deformation Effects
_thickRatio=  1     ! Ratio of thick parts in the model
eqsl,pcg,1e-8,,,,,,1
cntr,print,1               ! print out contact info and also make no initial contact an error
dmpoption,emat,no             ! Don't combine emat file for DANSYS
dmpoption,esav,no             ! Don't combine esav file for DANSYS
nldiag,cont,iter           ! print out contact info each equilibrium iteration
rescontrol,define,last,last,,dele	   ! Program Controlled
/com,****************************************************
/com,******************* SOLVE FOR LS 1 OF 2 ****************
nsel,s,node,,9066
f,all,fx,%_loadvari114x%
f,all,fy,%_loadvari114y%
f,all,fz,%_loadvari114z%
nsel,all
/nopr
/gopr
autots,on                   ! User turned on automatic time stepping
nsub,30,1000,30,OFF
time,1.
outres,erase
outres,all,none
outres,nsol,all,
outres,rsol,all
outres,eangl,all
outres,etmp,all
outres,veng,all
outres,strs,all,
outres,epel,all,
outres,eppl,all,
outres,cont,all,
! *********** WB SOLVE COMMAND ***********
! check interactive state
*get,ANSINTER_,active,,int
*if,ANSINTER_,ne,0,then
/eof
*endif
solve
/com *************** Write FE CONNECTORS ********* 
CEWRITE,file,ce,,INTE
/com,****************************************************
/com,*************** FINISHED SOLVE FOR LS 1 *************
/com,****************************************************
/com,******************* SOLVE FOR LS 2 OF 2 ****************
/nopr
/gopr
autots,on                  ! Workbench Program Controlled automatic time stepping
nsub,5,1000,1              ! due to presence of nonlinear materials
time,2.
outres,erase
outres,all,none
outres,nsol,all,
outres,rsol,all
outres,eangl,all
outres,etmp,all
outres,veng,all
outres,strs,all,
outres,epel,all,
outres,eppl,all,
outres,cont,all,
solve
/com,****************************************************
/com,*************** FINISHED SOLVE FOR LS 2 *************
*get,_wallasol,active,,time,wall
/nopr
*get,_numnode,node,0,count
*get,_numelem,elem,0,count
*get, _MAXELEMNUM, elem, 0, NUM, MAX
*get, _MAXNODENUM, node, 0, NUM, MAX,,,INTERNAL
*get, _MAXELEMTYPE, etyp, 0, NUM, MAX
*get, _MAXREALCONST, rcon, 0, NUM, MAX
*get,_NSOLTHREADS,active,0,ntfs
*get,_NSOLPROCESSES,active,0,npfs
/gopr
*get,_PCGITER,active,,solu,cgiter
/post1
xmlo,ENCODING,ISO-8859-1
xmlo,parm
/xml,parm,xml
fini
/gopr
*get,_walldone,active,,time,wall
_preptime=(_wallbsol-_wallstrt)*3600
_solvtime=(_wallasol-_wallbsol)*3600
_posttime=(_walldone-_wallasol)*3600
_totaltim=(_walldone-_wallstrt)*3600
*get,_dlbratio,active,0,solu,dlbr
*get,_combtime,active,0,solu,comb
*get,_ssmode,active,0,solu,ssmm
*get,_ndofs,active,0,solu,ndof
*get,_sol_end_time,active,0,set,time
*if,_sol_end_time,eq,2.000000,then
/fclean				!clean distributed files
*endif
/com,--- Total number of nodes = %_numnode%
/com,--- Total number of elements = %_numelem%
/com,--- Element load balance ratio = %_dlbratio%
/com,--- Time to combine distributed files = %_combtime%
/com,--- Sparse memory mode = %_ssmode%
/com,--- Number of DOF = %_ndofs%
/wb,file,end               ! done with WB generated input
