/batch
/config,noeldb,1     ! force off writing results to database
*get,_wallstrt,active,,time,wall
! ANSYS input file written by Workbench version 2022 R2
! File used for geometry attach: C:\Users\Admin\PycharmProjects\Github\thesis_files\master thesisio\ansys\bending_beam_self_study_files\dp0\SYS-10\DM\SYS-10.scdoc
/title,bending_beam_self_study--Static Structural (K5)
! ****** Begin Custom Load Command Snippet ******
/COM, ACT Extensions:
/COM,     LSDYNA, 2022.2
/COM,     5f463412-bd3e-484b-87e7-cbc0a665e474, wbex
/COM,/COM,     ANSYSMotion, 2022.2
/COM,     20180725-3f81-49eb-9f31-41364844c769, wbex
/COM,
! ****** End   Custom Load Command Snippet ******
*DIM,_wb_ProjectScratch_dir,string,248
_wb_ProjectScratch_dir(1) = 'C:\Users\Admin\PycharmProjects\Github\thesis_files\master thesisio\ansys\_ProjectScratch\ScrFAB9\'
*DIM,_wb_SolverFiles_dir,string,248
_wb_SolverFiles_dir(1) = 'C:\Users\Admin\PycharmProjects\Github\thesis_files\master thesisio\ansys\bending_beam_self_study_files\dp0\SYS-10\MECH\'
*DIM,_wb_userfiles_dir,string,248
_wb_userfiles_dir(1) = 'C:\Users\Admin\PycharmProjects\Github\thesis_files\master thesisio\ansys\bending_beam_self_study_files\user_files\'
/com,--- Data in consistent NMM units. See Solving Units in the help system for more information.
/units,MPA
/nopr
/wb,file,start              !  signify a WB generated input file
/prep7
! Turn off shape checking because checks already performed inside WB mesher.
! See help system for more information.
SHPP,OFF,,NOWARN
/nolist
etcon,set             ! allow ANSYS to choose best KEYOP's for 180x elements, resets any applicable keyopt to MAPDL defaults
/com,*********** Nodes for the whole assembly ***********
nblock,3,,1673
(1i9,3e20.9e3)
        1     9.800000000E+02     0.000000000E+00     0.000000000E+00
        2     9.600000000E+02     0.000000000E+00     0.000000000E+00
        3     9.400000000E+02     0.000000000E+00     0.000000000E+00
        4     9.200000000E+02     0.000000000E+00     0.000000000E+00
        5     9.000000000E+02     0.000000000E+00     0.000000000E+00
        6     8.800000000E+02     0.000000000E+00     0.000000000E+00
        7     8.600000000E+02     0.000000000E+00     0.000000000E+00
        8     8.400000000E+02     0.000000000E+00     0.000000000E+00
        9     8.200000000E+02     0.000000000E+00     0.000000000E+00
       10     8.000000000E+02     0.000000000E+00     0.000000000E+00
       11     7.800000000E+02     0.000000000E+00     0.000000000E+00
       12     7.600000000E+02     0.000000000E+00     0.000000000E+00
       13     7.400000000E+02     0.000000000E+00     0.000000000E+00
       14     7.200000000E+02     0.000000000E+00     0.000000000E+00
       15     7.000000000E+02     0.000000000E+00     0.000000000E+00
       16     6.800000000E+02     0.000000000E+00     0.000000000E+00
       17     6.600000000E+02     0.000000000E+00     0.000000000E+00
       18     6.400000000E+02     0.000000000E+00     0.000000000E+00
       19     6.200000000E+02     0.000000000E+00     0.000000000E+00
       20     6.000000000E+02     0.000000000E+00     0.000000000E+00
! ... 1502 like lines cut
/wb,elem,start            !  set before creation of elements
/com,*********** Elements for Body 1 "SYS-10\Rectangular Beam" ***********
et,1,186
keyo,1,2,1          ! set full integration on SOLID186
eblock,19,solid,,200
(19i9)
        1        1        1        1        0        0        0        0       20        0        1        1      354      455      456       98      451      454      457
      464     1367     1519      465      852     1513     1518      853      461     1366     1517     1520
        1        1        1        1        0        0        0        0       20        0        2        1      456      455      354       99      149      150      151
      465     1519     1367      464      855     1005     1008      856      462     1007     1009     1011
        1        1        1        1        0        0        0        0       20        0        3        1        2      355      354       98       97      450      451
      460      470     1365      464      848      850     1512      852      461      467     1369     1366
        1        1        1        1        0        0        0        0       20        0        4        1      354      355        2       99      151      152      100
      464     1365      470      460      856     1010      859      854      462     1011     1013      468
        1        1        1        1        0        0        0        0       20        0        5        2        3      356      355       97       96      449      450
      466      475     1368      470      845      847     1511      850      467      472     1371     1369
        1        1        1        1        0        0        0        0       20        0        6        2      355      356        3      100      152      153      101
      470     1368      475      466      859     1012      862      858      468     1013     1015      473
        1        1        1        1        0        0        0        0       20        0        7        3        4      357      356       96       95      448      449
      471      480     1370      475      842      844     1510      847      472      477     1373     1371
        1        1        1        1        0        0        0        0       20        0        8        3      356      357        4      101      153      154      102
      475     1370      480      471      862     1014      865      861      473     1015     1017      478
        1        1        1        1        0        0        0        0       20        0        9        4        5      358      357       95       94      447      448
      476      485     1372      480      839      841     1509      844      477      482     1375     1373
        1        1        1        1        0        0        0        0       20        0       10        4      357      358        5      102      154      155      103
      480     1372      485      476      865     1016      868      864      478     1017     1019      483
! ... 381 like lines cut
!Material Id = {1D41DDC4-8223-4654-88A2-109814DAA3B9}
/wb,elem,end               !  done creating elements
/com,*********** Send User Defined Coordinate System(s) ***********
local,12,0,0.,-20.,0.,0.,0.,0.
local,13,0,0.,0.,0.,0.,0.,0.
local,14,0,0.,20.,0.,0.,0.,0.
csys,0
toffst,273.15,  ! Temperature offset from absolute zero
/com,*********** Set Reference Temperature ***********
tref,22.
/wb,mat,start              !  starting to send materials
/com,*********** Send Materials ***********
MP,EX,1,210000,	! tonne s^-2 mm^-1
MP,NUXY,1,0.3,
MP,UVID,1,0beb5ea2-35ae-42bc-aad7-0a8f5e6c6f66

/wb,mat,end                !  done sending materials
!************************* Model Summary ********************
!SYS-10\Rectangular Beam,	steel,	matid,	1
!************************* End Model Summary ********************
! get the diagonal of the bounding box. Needed later for other things
*get,_xmin,node,,mnloc,x
*get,_ymin,node,,mnloc,y
*get,_zmin,node,,mnloc,z
*get,_xmax,node,,mxloc,x
*get,_ymax,node,,mxloc,y
*get,_zmax,node,,mxloc,z
_ASMDIAG=(_xmax-_xmin)*(_xmax-_xmin)+(_ymax-_ymin)*(_ymax-_ymin)+(_zmax-_zmin)*(_zmax-_zmin)
_ASMDIAG=SQRT(_ASMDIAG)
/wb,contact,start          !  starting to send contact
/wb,contact,end            !  done creating contacts
/com,*********** Send Named Selection as Node Component ***********
CMBLOCK,FULL_BODY,NODE,     1226
(8i10)
        50        51        52        53        54        55        56        57
        58        59        60        61        62        63        64        65
        66        67        68        69        70        71        72        73
        74        75        76        77        78        79        80        81
        82        83        84        85        86        87        88        89
        90        91        92        93        94        95        96        97
        98        99       100       101       102       103       104       105
       106       107       108       109       110       111       112       113
       114       115       116       117       118       119       120       121
       122       123       124       125       126       127       128       129
       130       131       132       133       134       135       136       137
       138       139       140       141       142       143       144       145
       146       147       148       149       150       151       152       153
       154       155       156       157       158       159       160       161
       162       163       164       165       166       167       168       169
       170       171       172       173       174       175       176       177
       178       179       180       181       182       183       184       185
       186       187       188       189       190       191       192       193
       194       195       196       197       198       199       200       201
       202       203       204       205       206       207       208       209
! ... 134 like lines cut
/com,*********** Send Named Selection as Node Component ***********
CMBLOCK,TOP_FACE,NODE,      405
(8i10)
        99       100       101       102       103       104       105       106
       107       108       109       110       111       112       113       114
       115       116       117       118       119       120       121       122
       123       124       125       126       127       128       129       130
       131       132       133       134       135       136       137       138
       139       140       141       142       143       144       145       146
       147       148       149       150       151       152       153       154
       155       156       157       158       159       160       161       162
       163       164       165       166       167       168       169       170
       171       172       173       174       175       176       177       178
       179       180       181       182       183       184       185       186
       187       188       189       190       191       192       193       194
       195       196       197       198       199       200       201       202
       203       204       205       206       207       208       209       210
       211       212       213       214       215       216       217       218
       219       220       221       222       223       224       225       226
       227       228       229       230       231       232       233       234
       235       236       237       238       239       240       241       242
       243       244       245       246       247       248       249       250
       251       854       855       856       857       858       859       860
! ... 31 like lines cut
/com,*********** Send Named Selection as Node Component ***********
CMBLOCK,RIGHT_END_EDGE,NODE,        5
(8i10)
       353       454       457      1364      1518
/com,*********** Send Named Selection as Node Component ***********
CMBLOCK,LEFT_END_EDGE,NODE,        5
(8i10)
       350       453       459      1360      1516
/golist
/wb,load,start             !  starting to send loads
/com,*********** Fixed Supports ***********
CMBLOCK,_FIXEDSU,NODE,        5
(8i10)
       350       453       459      1360      1516
cmsel,s,_FIXEDSU
d,all,all
nsel,all
/com,******* Constant Zero Displacement Y *******
CMBLOCK,_DISPZEROUY,NODE,        5
(8i10)
       353       454       457      1364      1518
cmsel,s,_DISPZEROUY
d,all,uy,0
nsel,all
/com,******* Constant Zero Displacement Z *******
CMBLOCK,_DISPZEROUZ,NODE,        5
(8i10)
       353       454       457      1364      1518
cmsel,s,_DISPZEROUZ
d,all,uz,0
nsel,all
/com,*********** Define Force Using Surface Effect Elements ***********
local,15,0,0.,0.,0.,0.,0.,0.
csys,0
et,2,154
eblock,10,,,100
(15i9)
      609        2        2        2       15      151       99      149      150      856      855     1005     1008
      610        2        2        2       15      152      100       99      151      859      854      856     1010
      611        2        2        2       15      153      101      100      152      862      858      859     1012
      612        2        2        2       15      154      102      101      153      865      861      862     1014
      613        2        2        2       15      155      103      102      154      868      864      865     1016
      614        2        2        2       15      156      104      103      155      871      867      868     1018
      615        2        2        2       15      157      105      104      156      874      870      871     1020
      616        2        2        2       15      158      106      105      157      877      873      874     1022
      617        2        2        2       15      159      107      106      158      880      876      877     1024
      618        2        2        2       15      160      108      107      159      883      879      880     1026
      619        2        2        2       15      161      109      108      160      886      882      883     1028
      620        2        2        2       15      162      110      109      161      889      885      886     1030
      621        2        2        2       15      163      111      110      162      892      888      889     1032
      622        2        2        2       15      164      112      111      163      895      891      892     1034
      623        2        2        2       15      165      113      112      164      898      894      895     1036
      624        2        2        2       15      166      114      113      165      901      897      898     1038
      625        2        2        2       15      167      115      114      166      904      900      901     1040
      626        2        2        2       15      168      116      115      167      907      903      904     1042
      627        2        2        2       15      169      117      116      168      910      906      907     1044
      628        2        2        2       15      170      118      117      169      913      909      910     1046
! ... 81 like lines cut
esel,s,type,,2
keyop,2,2,1                ! Apply load in local coordinate system
keyop,2,7,1                ! Use original area so load is constant in large deformation
esel,all
/gst,on,on
fini
*get,_numnode,node,0,count
*get,_numelem,elem,0,count
*get, _MAXELEMNUM, elem, 0, NUM, MAX
*get, _MAXNODENUM, node, 0, NUM, MAX
*get, _MAXELEMTYPE, etyp, 0, NUM, MAX
*get, _MAXREALCONST, rcon, 0, NUM, MAX
/go
/wb,load,end               !  done creating loads
/com,--- Number of total nodes = %_numnode%
/com,--- Number of contact elements = 100
/com,--- Number of spring elements = 0
/com,--- Number of bearing elements = 0
/com,--- Number of solid elements = 200
/com,--- Number of condensed parts = 0
/com,--- Number of total elements = %_numelem%
*get,_wallbsol,active,,time,wall
/com,****************************************************************************
/com,*************************    SOLUTION       ********************************
/com,****************************************************************************
/solu
antype,0                   ! static analysis
_thickRatio=  0     ! Ratio of thick parts in the model
eqsl,sparse,,,,,1
cntr,print,1               ! print out contact info and also make no initial contact an error
dmpoption,emat,no             ! Don't combine emat file for DANSYS
dmpoption,esav,no             ! Don't combine esav file for DANSYS
nldiag,cont,iter           ! print out contact info each equilibrium iteration
rescontrol,,none                 ! Do not keep any restart files
/com,****************************************************
/com,******************* SOLVE FOR LS 1 OF 1 ****************
esel,s,type,,2
nsle
sfe,all,1,pres,1,0.
sfe,all,2,pres,1,-0.125000000000009
sfe,all,3,pres,1,0.
nsel,all
esel,all
/nopr
/gopr
nsub,1,1,1
time,1.
outres,erase
outres,all,none
outres,nsol,all,
outres,rsol,all
outres,eangl,all
outres,etmp,all
outres,veng,all
outres,strs,all,
outres,epel,all,
outres,eppl,all,
outres,cont,all,
! *********** WB SOLVE COMMAND ***********
! check interactive state
*get,ANSINTER_,active,,int
*if,ANSINTER_,ne,0,then
/eof
*endif
solve
/com *************** Write FE CONNECTORS ********* 
CEWRITE,file,ce,,INTE
/com,****************************************************
/com,*************** FINISHED SOLVE FOR LS 1 *************
*get,_wallasol,active,,time,wall
/nopr
*get,_numnode,node,0,count
*get,_numelem,elem,0,count
*get, _MAXELEMNUM, elem, 0, NUM, MAX
*get, _MAXNODENUM, node, 0, NUM, MAX,,,INTERNAL
*get, _MAXELEMTYPE, etyp, 0, NUM, MAX
*get, _MAXREALCONST, rcon, 0, NUM, MAX
*get,_NSOLTHREADS,active,0,ntfs
*get,_NSOLPROCESSES,active,0,npfs
/gopr
/post1
xmlo,ENCODING,ISO-8859-1
xmlo,parm
/xml,parm,xml
fini
/gopr
*get,_walldone,active,,time,wall
_preptime=(_wallbsol-_wallstrt)*3600
_solvtime=(_wallasol-_wallbsol)*3600
_posttime=(_walldone-_wallasol)*3600
_totaltim=(_walldone-_wallstrt)*3600
*get,_dlbratio,active,0,solu,dlbr
*get,_combtime,active,0,solu,comb
*get,_ssmode,active,0,solu,ssmm
*get,_ndofs,active,0,solu,ndof
*get,_sol_end_time,active,0,set,time
*if,_sol_end_time,eq,1.000000,then
/fclean				!clean distributed files
*endif
/com,--- Total number of nodes = %_numnode%
/com,--- Total number of elements = %_numelem%
/com,--- Element load balance ratio = %_dlbratio%
/com,--- Time to combine distributed files = %_combtime%
/com,--- Sparse memory mode = %_ssmode%
/com,--- Number of DOF = %_ndofs%
/wb,file,end               ! done with WB generated input
