/batch
/config,noeldb,1     ! force off writing results to database
*get,_wallstrt,active,,time,wall
! ANSYS input file written by Workbench version 2022 R2
! File used for geometry attach: C:\Users\Admin\PycharmProjects\Github\thesis_files\master thesisio\ansys\Thesis_files\dp0\SYS-3\DM\SYS-3.scdoc
/title,Thesis--Static Structural (E5)
! ****** Begin Custom Load Command Snippet ******
/COM, ACT Extensions:
/COM,     LSDYNA, 2022.2
/COM,     5f463412-bd3e-484b-87e7-cbc0a665e474, wbex
/COM,/COM,     ANSYSMotion, 2022.2
/COM,     20180725-3f81-49eb-9f31-41364844c769, wbex
/COM,
! ****** End   Custom Load Command Snippet ******
*DIM,_wb_ProjectScratch_dir,string,248
_wb_ProjectScratch_dir(1) = 'C:\Users\Admin\PycharmProjects\Github\thesis_files\master thesisio\ansys\_ProjectScratch\ScrA015\'
*DIM,_wb_SolverFiles_dir,string,248
_wb_SolverFiles_dir(1) = 'C:\Users\Admin\PycharmProjects\Github\thesis_files\master thesisio\ansys\Thesis_files\dp0\SYS-3\MECH\'
*DIM,_wb_userfiles_dir,string,248
_wb_userfiles_dir(1) = 'C:\Users\Admin\PycharmProjects\Github\thesis_files\master thesisio\ansys\Thesis_files\user_files\'
/com,--- Data in consistent NMM units. See Solving Units in the help system for more information.
/units,MPA
/nopr
/wb,file,start              !  signify a WB generated input file
/prep7
! Turn off shape checking because checks already performed inside WB mesher.
! See help system for more information.
SHPP,OFF,,NOWARN
/nolist
etcon,set             ! allow ANSYS to choose best KEYOP's for 180x elements, resets any applicable keyopt to MAPDL defaults
/com,*********** Nodes for the whole assembly ***********
nblock,3,,9971
(1i9,3e20.9e3)
        1     1.000000000E+01    -1.000000000E+01    -1.000000000E+01
        2     1.000000000E+01    -1.000000000E+01     0.000000000E+00
        3     1.000000000E+01    -1.000000000E+01     1.000000000E+01
        4     1.000000000E+01     0.000000000E+00    -1.000000000E+01
        5     1.000000000E+01     0.000000000E+00     0.000000000E+00
        6     1.000000000E+01     0.000000000E+00     1.000000000E+01
        7     1.000000000E+01     1.000000000E+01    -1.000000000E+01
        8     1.000000000E+01     1.000000000E+01     0.000000000E+00
        9     1.000000000E+01     1.000000000E+01     1.000000000E+01
       10     2.000000000E+01    -1.000000000E+01    -1.000000000E+01
       11     2.000000000E+01    -1.000000000E+01     0.000000000E+00
       12     2.000000000E+01    -1.000000000E+01     1.000000000E+01
       13     2.000000000E+01     0.000000000E+00    -1.000000000E+01
       14     2.000000000E+01     0.000000000E+00     0.000000000E+00
       15     2.000000000E+01     0.000000000E+00     1.000000000E+01
       16     2.000000000E+01     1.000000000E+01    -1.000000000E+01
       17     2.000000000E+01     1.000000000E+01     0.000000000E+00
       18     2.000000000E+01     1.000000000E+01     1.000000000E+01
       19     3.000000000E+01    -1.000000000E+01    -1.000000000E+01
       20     3.000000000E+01    -1.000000000E+01     0.000000000E+00
! ... 9046 like lines cut
/wb,elem,start            !  set before creation of elements
/com,*********** Elements for Body 1 "SYS-3\Rectangular Beam" ***********
et,1,186
keyo,1,2,1          ! set full integration on SOLID186
eblock,19,solid,,1600
(19i9)
        1        1        1        1        0        0        0        0       20        0        1        1     2098     2495     2520     1188     2395     2494     2523
     2530     8324     9021     2531     6496     8919     9019     6497     2529     8323     9018     9062
        1        1        1        1        0        0        0        0       20        0        2        1     2520     2495     2098        2     2521     2496     2099
     2531     9021     8324     2530     2536     9023     8327     2535     2526     9061     9020     8321
        1        1        1        1        0        0        0        0       20        0        3        2     2521     2496     2099        3     2522     2497     2100
     2536     9023     8327     2535     2541     9024     8329     2540     2532     9063     9022     8325
        1        1        1        1        0        0        0        0       20        0        4        3     2522     2497     2100     1189     1486     1592     1591
     2541     9024     8329     2540     6500     7195     7406     6501     2539     7196     7408     7407
        1        1        1        1        0        0        0        0       20        0        5        1       10     2101     2098     1188     1185     2396     2395
     2528     2572     8322     2530     6489     6490     8918     6496     2529     2571     8332     8323
        1        1        1        1        0        0        0        0       20        0        6        1     2098     2101       10        2     2099     2102       11
     2530     8322     2572     2528     2535     8326     2576     2534     2526     8321     8330     2568
        1        1        1        1        0        0        0        0       20        0        7        2     2099     2102       11        3     2100     2103       12
     2535     8326     2576     2534     2540     8328     2580     2538     2532     8325     8333     2573
        1        1        1        1        0        0        0        0       20        0        8        3     2100     2103       12     1189     1591     1590     1192
     2540     8328     2580     2538     6501     7404     6510     6499     2539     7407     7405     2579
        1        1        1        1        0        0        0        0       20        0        9       10       19     2104     2101     1185     1182     2397     2396
     2570     2605     8331     2572     6482     6483     8920     6490     2571     2604     8338     8332
        1        1        1        1        0        0        0        0       20        0       10       10     2101     2104       19       11     2102     2105       20
     2572     8331     2605     2570     2576     8334     2609     2575     2568     8330     8336     2601
! ... 3181 like lines cut
!Material Id = {5BF5F8B1-388A-4717-80A2-FE551F4E85D1}
/wb,elem,end               !  done creating elements
/com,*********** Send User Defined Coordinate System(s) ***********
local,12,0,0.,-20.,0.,0.,0.,0.
local,13,0,0.,0.,0.,0.,0.,0.
local,14,0,0.,20.,0.,0.,0.,0.
csys,0
toffst,273.15,  ! Temperature offset from absolute zero
/com,*********** Set Reference Temperature ***********
tref,22.
/wb,mat,start              !  starting to send materials
/com,*********** Send Materials ***********
MP,EX,1,200000,	! tonne s^-2 mm^-1
MP,NUXY,1,0.25,
MP,UVID,1,fbabb043-3246-42e2-898b-0fc0f1a58db5

/wb,mat,end                !  done sending materials
!************************* Model Summary ********************
!SYS-3\Rectangular Beam,	AISI 1020 steel,	matid,	1
!************************* End Model Summary ********************
! get the diagonal of the bounding box. Needed later for other things
*get,_xmin,node,,mnloc,x
*get,_ymin,node,,mnloc,y
*get,_zmin,node,,mnloc,z
*get,_xmax,node,,mxloc,x
*get,_ymax,node,,mxloc,y
*get,_zmax,node,,mxloc,z
_ASMDIAG=(_xmax-_xmin)*(_xmax-_xmin)+(_ymax-_ymin)*(_ymax-_ymin)+(_zmax-_zmin)*(_zmax-_zmin)
_ASMDIAG=SQRT(_ASMDIAG)
/wb,contact,start          !  starting to send contact
/wb,contact,end            !  done creating contacts
/com,*********** Send Named Selection as Node Component ***********
CMBLOCK,FULL_BODY,NODE,     4898
(8i10)
       892       893       894       895       896       897       898       899
       900       901       902       903       904       905       906       907
       908       909       910       911       912       913       914       915
       916       917       918       919       920       921       922       923
       924       925       926       927       928       929       930       931
       932       933       934       935       936       937       938       939
       940       941       942       943       944       945       946       947
       948       949       950       951       952       953       954       955
       956       957       958       959       960       961       962       963
       964       965       966       967       968       969       970       971
       972       973       974       975       976       977       978       979
       980       981       982       983       984       985       986       987
       988       989       990       991       992       993       994       995
       996       997       998       999      1000      1001      1002      1003
      1004      1005      1006      1007      1008      1009      1010      1011
      1012      1013      1014      1015      1016      1017      1018      1019
      1020      1021      1022      1023      1024      1025      1026      1027
      1028      1029      1030      1031      1032      1033      1034      1035
      1036      1037      1038      1039      1040      1041      1042      1043
      1044      1045      1046      1047      1048      1049      1050      1051
! ... 593 like lines cut
/com,*********** Send Named Selection as Node Component ***********
CMBLOCK,TOP_FACE,NODE,     1409
(8i10)
      1593      1594      1595      1596      1597      1598      1599      1600
      1601      1602      1603      1604      1605      1606      1607      1608
      1609      1610      1611      1612      1613      1614      1615      1616
      1617      1618      1619      1620      1621      1622      1623      1624
      1625      1626      1627      1628      1629      1630      1631      1632
      1633      1634      1635      1636      1637      1638      1639      1640
      1641      1642      1643      1644      1645      1646      1647      1648
      1649      1650      1651      1652      1653      1654      1655      1656
      1657      1658      1659      1660      1661      1662      1663      1664
      1665      1666      1667      1668      1669      1670      1671      1672
      1673      1674      1675      1676      1677      1678      1679      1680
      1681      1682      1683      1684      1685      1686      1687      1688
      1689      1690      1691      1692      1693      1694      1695      1696
      1697      1698      1699      1700      1701      1702      1703      1704
      1705      1706      1707      1708      1709      1710      1711      1712
      1713      1714      1715      1716      1717      1718      1719      1720
      1721      1722      1723      1724      1725      1726      1727      1728
      1729      1730      1731      1732      1733      1734      1735      1736
      1737      1738      1739      1740      1741      1742      1743      1744
      1745      1746      1747      1748      1749      1750      1751      1752
! ... 157 like lines cut
/com,*********** Send Named Selection as Node Component ***********
CMBLOCK,RIGHT_END_EDGE,NODE,        9
(8i10)
      1492      2498      2499      2500      2501      7209      9025      9027
      9029
/com,*********** Send Named Selection as Node Component ***********
CMBLOCK,LEFT_END_EDGE,NODE,        9
(8i10)
      1592      2494      2495      2496      2497      7408      9018      9020
      9022
/com,*********** Send Named Selection as Node Component ***********
CMBLOCK,CONCENTRATED_LOAD1,NODE,        9
(8i10)
      1693      1894      1895      1896      1897      7609      7964      7966
      7968
/golist
/wb,load,start             !  starting to send loads
/com,*********** Fixed Supports ***********
CMBLOCK,_FIXEDSU,NODE,        9
(8i10)
      1592      2494      2495      2496      2497      7408      9018      9020
      9022
cmsel,s,_FIXEDSU
d,all,all
nsel,all
/com,******* Constant Zero Displacement Y *******
CMBLOCK,_DISPZEROUY,NODE,        9
(8i10)
      1492      2498      2499      2500      2501      7209      9025      9027
      9029
cmsel,s,_DISPZEROUY
d,all,uy,0
nsel,all
/com,******* Constant Zero Displacement Z *******
CMBLOCK,_DISPZEROUZ,NODE,        9
(8i10)
      1492      2498      2499      2500      2501      7209      9025      9027
      9029
cmsel,s,_DISPZEROUZ
d,all,uz,0
nsel,all
/com,*********** Define Force Using Surface Effect Elements ***********
local,15,0,0.,0.,0.,0.,0.,0.
csys,0
et,2,156
keyop,2,5,1         !  No orientation node
eblock,10,,,4
(15i9)
     3233        2        2        2       15     1895     1894     7964
     3234        2        2        2       15     1895     1896     7966
     3235        2        2        2       15     1896     1897     7968
     3236        2        2        2       15     1897     1693     7609
-1
esel,s,type,,2
keyop,2,2,1                ! Apply load in local coordinate system
keyop,2,7,1                ! Use original area so load is constant in large deformation
esel,all
/gst,on,on
fini
*get,_numnode,node,0,count
*get,_numelem,elem,0,count
*get, _MAXELEMNUM, elem, 0, NUM, MAX
*get, _MAXNODENUM, node, 0, NUM, MAX
*get, _MAXELEMTYPE, etyp, 0, NUM, MAX
*get, _MAXREALCONST, rcon, 0, NUM, MAX
/go
/wb,load,end               !  done creating loads
/com,--- Number of total nodes = %_numnode%
/com,--- Number of contact elements = 4
/com,--- Number of spring elements = 0
/com,--- Number of bearing elements = 0
/com,--- Number of solid elements = 1600
/com,--- Number of condensed parts = 0
/com,--- Number of total elements = %_numelem%
*get,_wallbsol,active,,time,wall
/com,****************************************************************************
/com,*************************    SOLUTION       ********************************
/com,****************************************************************************
/solu
antype,0                   ! static analysis
_thickRatio=  1     ! Ratio of thick parts in the model
eqsl,pcg,1e-8,,,,,,1
cntr,print,1               ! print out contact info and also make no initial contact an error
dmpoption,emat,no             ! Don't combine emat file for DANSYS
dmpoption,esav,no             ! Don't combine esav file for DANSYS
nldiag,cont,iter           ! print out contact info each equilibrium iteration
rescontrol,,none                 ! Do not keep any restart files
/com,****************************************************
/com,******************* SOLVE FOR LS 1 OF 1 ****************
esel,s,type,,2
nsle
sfe,all,1,pres,1,0.
sfe,all,2,pres,1,-125.
sfe,all,3,pres,1,0.
nsel,all
esel,all
/nopr
/gopr
autots,off                 ! User turned off automatic time stepping
nsub,30,30,30
time,1.
outres,erase
outres,all,none
outres,nsol,all,
outres,rsol,all
outres,eangl,all
outres,etmp,all
outres,veng,all
outres,strs,all,
outres,epel,all,
outres,eppl,all,
outres,cont,all,
! *********** WB SOLVE COMMAND ***********
! check interactive state
*get,ANSINTER_,active,,int
*if,ANSINTER_,ne,0,then
/eof
*endif
solve
/com *************** Write FE CONNECTORS ********* 
CEWRITE,file,ce,,INTE
/com,****************************************************
/com,*************** FINISHED SOLVE FOR LS 1 *************
*get,_wallasol,active,,time,wall
/nopr
*get,_numnode,node,0,count
*get,_numelem,elem,0,count
*get, _MAXELEMNUM, elem, 0, NUM, MAX
*get, _MAXNODENUM, node, 0, NUM, MAX,,,INTERNAL
*get, _MAXELEMTYPE, etyp, 0, NUM, MAX
*get, _MAXREALCONST, rcon, 0, NUM, MAX
*get,_NSOLTHREADS,active,0,ntfs
*get,_NSOLPROCESSES,active,0,npfs
/gopr
*get,_PCGITER,active,,solu,cgiter
/post1
xmlo,ENCODING,ISO-8859-1
xmlo,parm
/xml,parm,xml
fini
/gopr
*get,_walldone,active,,time,wall
_preptime=(_wallbsol-_wallstrt)*3600
_solvtime=(_wallasol-_wallbsol)*3600
_posttime=(_walldone-_wallasol)*3600
_totaltim=(_walldone-_wallstrt)*3600
*get,_dlbratio,active,0,solu,dlbr
*get,_combtime,active,0,solu,comb
*get,_ssmode,active,0,solu,ssmm
*get,_ndofs,active,0,solu,ndof
*get,_sol_end_time,active,0,set,time
*if,_sol_end_time,eq,1.000000,then
/fclean				!clean distributed files
*endif
/com,--- Total number of nodes = %_numnode%
/com,--- Total number of elements = %_numelem%
/com,--- Element load balance ratio = %_dlbratio%
/com,--- Time to combine distributed files = %_combtime%
/com,--- Sparse memory mode = %_ssmode%
/com,--- Number of DOF = %_ndofs%
/wb,file,end               ! done with WB generated input
