/batch
/config,noeldb,1     ! force off writing results to database
*get,_wallstrt,active,,time,wall
! ANSYS input file written by Workbench version 2022 R2
! File used for geometry attach: C:\Users\Admin\Desktop\master thesis\ANSYS\bending_beam_self_study_files\dp0\SYS\DM\SYS.agdb
/title,bending_beam_self_study--Static Structural (C5)
! ****** Begin Custom Load Command Snippet ******
/COM, ACT Extensions:
/COM,     LSDYNA, 2022.2
/COM,     5f463412-bd3e-484b-87e7-cbc0a665e474, wbex
/COM,/COM,     ANSYSMotion, 2022.2
/COM,     20180725-3f81-49eb-9f31-41364844c769, wbex
/COM,
! ****** End   Custom Load Command Snippet ******
*DIM,_wb_ProjectScratch_dir,string,248
_wb_ProjectScratch_dir(1) = 'C:\Users\Admin\Desktop\master thesis\ANSYS\_ProjectScratch\ScrE053\'
*DIM,_wb_SolverFiles_dir,string,248
_wb_SolverFiles_dir(1) = 'C:\Users\Admin\Desktop\master thesis\ANSYS\bending_beam_self_study_files\dp0\SYS\MECH\'
*DIM,_wb_userfiles_dir,string,248
_wb_userfiles_dir(1) = 'C:\Users\Admin\Desktop\master thesis\ANSYS\bending_beam_self_study_files\user_files\'
/com,--- Data in consistent NMM units. See Solving Units in the help system for more information.
/units,MPA
/nopr
/wb,file,start              !  signify a WB generated input file
/prep7
! Turn off shape checking because checks already performed inside WB mesher.
! See help system for more information.
SHPP,OFF,,NOWARN
/nolist
etcon,set             ! allow ANSYS to choose best KEYOP's for 180x elements, resets any applicable keyopt to MAPDL defaults
/com,*********** Nodes for the whole assembly ***********
nblock,3,,111
(1i9,3e20.9e3)
        1     0.000000000E+00     0.000000000E+00     0.000000000E+00
        2     1.000000000E+03     0.000000000E+00     0.000000000E+00
        3     2.000000000E+01     0.000000000E+00     0.000000000E+00
        4     4.000000000E+01     0.000000000E+00     0.000000000E+00
        5     6.000000000E+01     0.000000000E+00     0.000000000E+00
        6     8.000000000E+01     0.000000000E+00     0.000000000E+00
        7     1.000000000E+02     0.000000000E+00     0.000000000E+00
        8     1.200000000E+02     0.000000000E+00     0.000000000E+00
        9     1.400000000E+02     0.000000000E+00     0.000000000E+00
       10     1.600000000E+02     0.000000000E+00     0.000000000E+00
       11     1.800000000E+02     0.000000000E+00     0.000000000E+00
       12     2.000000000E+02     0.000000000E+00     0.000000000E+00
       13     2.200000000E+02     0.000000000E+00     0.000000000E+00
       14     2.400000000E+02     0.000000000E+00     0.000000000E+00
       15     2.600000000E+02     0.000000000E+00     0.000000000E+00
       16     2.800000000E+02     0.000000000E+00     0.000000000E+00
       17     3.000000000E+02     0.000000000E+00     0.000000000E+00
       18     3.200000000E+02     0.000000000E+00     0.000000000E+00
       19     3.400000000E+02     0.000000000E+00     0.000000000E+00
       20     3.600000000E+02     0.000000000E+00     0.000000000E+00
! ... 82 like lines cut
/wb,elem,start            !  set before creation of elements
/com,*********** Elements for Body 1 "Line Body" ***********
et,1,188
keyo,1,3,2
eblock,19,solid,,50
(19i9)
        1        1        1        1        0        0        0        0        3        0        1        1        3       52
        1        1        1        1        0        0        0        0        3        0        2        3        4       53
        1        1        1        1        0        0        0        0        3        0        3        4        5       54
        1        1        1        1        0        0        0        0        3        0        4        5        6       55
        1        1        1        1        0        0        0        0        3        0        5        6        7       56
        1        1        1        1        0        0        0        0        3        0        6        7        8       57
        1        1        1        1        0        0        0        0        3        0        7        8        9       58
        1        1        1        1        0        0        0        0        3        0        8        9       10       59
        1        1        1        1        0        0        0        0        3        0        9       10       11       60
        1        1        1        1        0        0        0        0        3        0       10       11       12       61
        1        1        1        1        0        0        0        0        3        0       11       12       13       62
        1        1        1        1        0        0        0        0        3        0       12       13       14       63
        1        1        1        1        0        0        0        0        3        0       13       14       15       64
        1        1        1        1        0        0        0        0        3        0       14       15       16       65
        1        1        1        1        0        0        0        0        3        0       15       16       17       66
        1        1        1        1        0        0        0        0        3        0       16       17       18       67
        1        1        1        1        0        0        0        0        3        0       17       18       19       68
        1        1        1        1        0        0        0        0        3        0       18       19       20       69
        1        1        1        1        0        0        0        0        3        0       19       20       21       70
        1        1        1        1        0        0        0        0        3        0       20       21       22       71
! ... 31 like lines cut
!Material Id = {187D0064-B457-4B0F-946E-D5406B18BA4D}
/wb,elem,end               !  done creating elements
/com,*********** Send User Defined Coordinate System(s) ***********
csys,0
toffst,273.15,  ! Temperature offset from absolute zero
/com,*********** Set Reference Temperature ***********
tref,22.
/wb,mat,start              !  starting to send materials
/com,*********** Send Materials ***********
MP,EX,1,210000,	! tonne s^-2 mm^-1
MP,NUXY,1,0.3,
MP,UVID,1,04f9dab8-1f21-4efe-a453-b43587137728

/wb,mat,end                !  done sending materials
/com,*********** Send Beam Properties ***********
SECTYPE,1,BEAM,RECT
SECDATA,40.,40.
secoffset,cent

!************************* Model Summary ********************
!Line Body,	bb,	matid,	1
!************************* End Model Summary ********************
! get the diagonal of the bounding box. Needed later for other things
*get,_xmin,node,,mnloc,x
*get,_ymin,node,,mnloc,y
*get,_zmin,node,,mnloc,z
*get,_xmax,node,,mxloc,x
*get,_ymax,node,,mxloc,y
*get,_zmax,node,,mxloc,z
_ASMDIAG=(_xmax-_xmin)*(_xmax-_xmin)+(_ymax-_ymin)*(_ymax-_ymin)+(_zmax-_zmin)*(_zmax-_zmin)
_ASMDIAG=SQRT(_ASMDIAG)
/wb,contact,start          !  starting to send contact
/wb,contact,end            !  done creating contacts
/golist
/wb,load,start             !  starting to send loads
/com,*********** Simple Supports ***********
CMBLOCK,_SIMPLSU,NODE,        1
(8i10)
         1
cmsel,s,_SIMPLSU
d,all,ux,0
d,all,uy,0
d,all,uz,0
nsel,all
/com,******* Constant Zero Displacement Y *******
CMBLOCK,_DISPZEROUY,NODE,        1
(8i10)
         2
cmsel,s,_DISPZEROUY
d,all,uy,0
nsel,all
/com,******* Constant Zero Displacement Z *******
CMBLOCK,_DISPZEROUZ,NODE,        1
(8i10)
         2
cmsel,s,_DISPZEROUZ
d,all,uz,0
nsel,all
/com,********** Rotational Supports X **********
CMBLOCK,_ROTSUX ,NODE,        1
(8i10)
         1
cmsel,s,_ROTSUX
d,all,rotx,0
nsel,all
/com,*********** Define Force Using Surface Effect Elements ***********
local,12,0,0.,0.,0.,0.,0.,0.
csys,0
et,2,156
keyop,2,5,1         !  No orientation node
eblock,10,,,50
(15i9)
       51        2        2        2       12        1        3
       52        2        2        2       12        3        4
       53        2        2        2       12        4        5
       54        2        2        2       12        5        6
       55        2        2        2       12        6        7
       56        2        2        2       12        7        8
       57        2        2        2       12        8        9
       58        2        2        2       12        9       10
       59        2        2        2       12       10       11
       60        2        2        2       12       11       12
       61        2        2        2       12       12       13
       62        2        2        2       12       13       14
       63        2        2        2       12       14       15
       64        2        2        2       12       15       16
       65        2        2        2       12       16       17
       66        2        2        2       12       17       18
       67        2        2        2       12       18       19
       68        2        2        2       12       19       20
       69        2        2        2       12       20       21
       70        2        2        2       12       21       22
! ... 31 like lines cut
esel,s,type,,2
keyop,2,2,1                ! Apply load in local coordinate system
keyop,2,7,1                ! Use original area so load is constant in large deformation
esel,all
/gst,on,on
fini
*get,_numnode,node,0,count
*get,_numelem,elem,0,count
*get, _MAXELEMNUM, elem, 0, NUM, MAX
*get, _MAXNODENUM, node, 0, NUM, MAX
*get, _MAXELEMTYPE, etyp, 0, NUM, MAX
*get, _MAXREALCONST, rcon, 0, NUM, MAX
/go
/wb,load,end               !  done creating loads
/com,--- Number of total nodes = %_numnode%
/com,--- Number of contact elements = 50
/com,--- Number of spring elements = 0
/com,--- Number of bearing elements = 0
/com,--- Number of solid elements = 50
/com,--- Number of condensed parts = 0
/com,--- Number of total elements = %_numelem%
*get,_wallbsol,active,,time,wall
/com,****************************************************************************
/com,*************************    SOLUTION       ********************************
/com,****************************************************************************
/solu
antype,0                   ! static analysis
_thickRatio=  0     ! Ratio of thick parts in the model
eqsl,sparse,,,,,1
cntr,print,1               ! print out contact info and also make no initial contact an error
dmpoption,emat,no             ! Don't combine emat file for DANSYS
dmpoption,esav,no             ! Don't combine esav file for DANSYS
nldiag,cont,iter           ! print out contact info each equilibrium iteration
rescontrol,,none                 ! Do not keep any restart files
/com,****************************************************
/com,******************* SOLVE FOR LS 1 OF 1 ****************
esel,s,type,,2
nsle
sfe,all,1,pres,1,0.
sfe,all,2,pres,1,-5.
sfe,all,3,pres,1,0.
nsel,all
esel,all
/nopr
/gopr
nsub,1,1,1
time,1.
outres,erase
outres,all,none
outres,nsol,all,
outres,rsol,all
outres,eangl,all
outres,etmp,all
outres,veng,all
outres,strs,all,
outres,epel,all,
outres,eppl,all,
outres,cont,all,
/nopr
esel,s,type,,1
cm,_elmisc,elem
esel,all
/gopr
outres,misc,all,_elmisc
! *********** WB SOLVE COMMAND ***********
! check interactive state
*get,ANSINTER_,active,,int
*if,ANSINTER_,ne,0,then
/eof
*endif
solve
/com *************** Write FE CONNECTORS ********* 
CEWRITE,file,ce,,INTE
/com,****************************************************
/com,*************** FINISHED SOLVE FOR LS 1 *************
*get,_wallasol,active,,time,wall
/nopr
*get,_numnode,node,0,count
*get,_numelem,elem,0,count
*get, _MAXELEMNUM, elem, 0, NUM, MAX
*get, _MAXNODENUM, node, 0, NUM, MAX,,,INTERNAL
*get, _MAXELEMTYPE, etyp, 0, NUM, MAX
*get, _MAXREALCONST, rcon, 0, NUM, MAX
*get,_NSOLTHREADS,active,0,ntfs
*get,_NSOLPROCESSES,active,0,npfs
/gopr
/post1
xmlo,ENCODING,ISO-8859-1
xmlo,parm
/xml,parm,xml
fini
/gopr
*get,_walldone,active,,time,wall
_preptime=(_wallbsol-_wallstrt)*3600
_solvtime=(_wallasol-_wallbsol)*3600
_posttime=(_walldone-_wallasol)*3600
_totaltim=(_walldone-_wallstrt)*3600
*get,_dlbratio,active,0,solu,dlbr
*get,_combtime,active,0,solu,comb
*get,_ssmode,active,0,solu,ssmm
*get,_ndofs,active,0,solu,ndof
*get,_sol_end_time,active,0,set,time
*if,_sol_end_time,eq,1.000000,then
/fclean				!clean distributed files
*endif
/com,--- Total number of nodes = %_numnode%
/com,--- Total number of elements = %_numelem%
/com,--- Element load balance ratio = %_dlbratio%
/com,--- Time to combine distributed files = %_combtime%
/com,--- Sparse memory mode = %_ssmode%
/com,--- Number of DOF = %_ndofs%
/wb,file,end               ! done with WB generated input
